60
 energy: -102.487217394943 gnorm: 0.000437145888 xtb: 6.3.3 (4ae9cef)
C        -1.92976541227714   -2.40636002986834   -0.83468108070703
C        -2.68227469204929   -3.52052113981450   -1.15622394181704
C        -2.86053792382831   -4.53034761012509   -0.22584009589158
C        -2.28496215722507   -4.41982357576692    1.02787996361456
C        -1.53994609522801   -3.30063349191393    1.35429847511723
C        -1.36236226993465   -2.28451074049970    0.42719330444667
C        -0.50975337104588   -1.09633212479568    0.76891267522911
C         0.87651354573193   -1.18141026680815    0.10057067814016
C         1.88930768327188   -1.87231800972546    0.97115868490447
C         2.14089850639767   -3.22392610936720    0.77751655558667
C         3.03717630112044   -3.89055979397196    1.59295559143183
C         3.69282778210879   -3.21047880082715    2.60521352202982
C         3.44279949171804   -1.86338274932039    2.80241510159425
C         2.54063965440183   -1.19584812751543    1.99308881145020
N         1.19843534586213    0.21222849078352   -0.19259167439502
C         2.22092218987162    0.47539096144834   -1.05925173023058
C         2.43950544636524    1.89787410444197   -1.37960699265833
C         2.79491715002289    2.39245031339681   -2.61167363381423
C         2.97578237909808    1.70567177495709   -3.91401878968860
O         2.95751227022483    3.72511657901336   -2.54053208031410
C         2.74233553976291    4.09642419665039   -1.26446001349852
C         2.41666749403983    3.02255747125619   -0.50258251827644
O         2.90554081640838   -0.41831590345808   -1.51634322164380
C         0.07115151146838    1.07151212725367    0.05029979032899
C         0.17130965618475    1.87184495495222    1.36298207716109
O        -0.48793025769903    3.02741797213439    1.25854780069570
O         0.69149151378556    1.49583227601348    2.37482096911353
N        -1.03713367122448    0.15246461180760    0.23068526175971
C        -2.33864728923633    0.51757058733048    0.45955243576723
C        -2.76763776484512    1.76900230421084   -0.18905846314458
C        -3.64620022285466    2.68093396363344    0.34308367082340
C        -4.32275852073611    2.71735865988630    1.66247470217663
O        -3.85325331910893    3.68173638347510   -0.53017692356327
C        -3.13872816181917    3.41126393357666   -1.63821387442980
C        -2.44793401053365    2.25357981680705   -1.49277907749057
O        -3.08980564132439   -0.17693252024480    1.11433848193096
H        -1.79255389307646   -1.61908057144034   -1.56232085101518
H        -3.13023578089006   -3.60159474689547   -2.13580850773245
H        -3.44885608361465   -5.40023861635863   -0.47794627292896
H        -2.42025007891404   -5.20512831021463    1.75673769304815
H        -1.09380067342429   -3.21231043525056    2.33400895227680
H        -0.39202043587438   -1.01873433177736    1.85910438374512
H         0.80137076208178   -1.72560260915004   -0.85173170066964
H         1.63114739813260   -3.75353948973203   -0.01439728052498
H         3.22714656146593   -4.94204519100345    1.43506630029721
H         4.39709820076383   -3.72958494343316    3.23872380119699
H         3.95011467051611   -1.32892328288550    3.59221636893246
H         2.33819049939029   -0.14905212235330    2.15779443915067
H         3.11126169814205    0.64283956410582   -3.73688027496122
H         2.10794302317208    1.85745465409569   -4.55663766159144
H         3.84825767838571    2.10594021789056   -4.42540269030463
H         2.85346882382596    5.13612289180164   -1.03056122918019
H         2.23535293612414    3.01187011650914    0.55159727116303
H        -0.09798396399834    1.77927691941832   -0.76866691051753
H        -0.50032819656574    3.49936127299259    2.10822927046777
H        -5.39517153060458    2.84636896603010    1.52661241866397
H        -4.13943926547809    1.78169637027882    2.18178752162102
H        -3.95767278304145    3.55168919024380    2.26138888286287
H        -3.20839808497832    4.10829892336991   -2.44913057080787
H        -1.83074197841468    1.77838407475201   -2.22789579493483
