78
 energy: -153.395958680756 gnorm: 0.000496361673 xtb: 6.3.3 (4ae9cef)
C        -1.32042586160074    4.36469155508492   -0.01089439310945
C        -0.12805307451869    4.92160644417597   -0.73680961158530
F        -0.23230904560168    6.23332483565335   -0.98779296058115
F         0.10695767184774    4.34109577149626   -1.92651633489270
F         1.01798673109575    4.77911804303169   -0.03104788935952
C        -2.35321024394307    5.23035080559046    0.32842695561446
C        -3.45854489698219    4.76310391826737    1.01210540936289
C        -3.53560186429665    3.42614148609325    1.36031654873872
C        -2.50846261595794    2.56636795056604    1.02626689186954
C        -1.38877113891351    3.01566063555135    0.33497720135524
C        -0.29111956414922    2.03029594199850    0.03215570899058
C         0.42720543954508    1.54926667308091    1.31187810140170
C         1.67760761260762    2.34128752448959    1.60018471183390
C         1.77674200008023    3.23676492808782    2.66628105938876
C         0.63109590200003    3.46181156542997    3.61209530964769
F         0.20753088151765    2.35225163793852    4.24229983990465
F         0.91403862308034    4.34155563297477    4.58189700669898
F        -0.46404150705502    3.95890876634709    2.98648759793397
C         2.94400268674932    3.96414111486086    2.86611977578294
C         4.01832967885795    3.80834889095611    2.01217648922124
C         3.92848598666906    2.92313086749651    0.95289979335208
C         2.76843541335834    2.20143507738545    0.74961900727572
N         0.71192588625863    0.14633566880216    1.02508163866443
C         1.57285922764109   -0.55107639373156    1.81837359378133
C         1.84981009149575   -1.94932023378721    1.46639287790964
C         2.72512799557596   -2.81257159069908    2.07486518626259
C         3.60903722746532   -2.56908479034052    3.24033045072883
C         2.62635533339814   -4.04398651367966    1.34845883769326
C         3.22906101723864   -5.29663469553203    1.45854982845263
C         2.86361680522388   -6.27359052814281    0.55901753466626
C         1.91776385836919   -6.02873028892129   -0.43995718771302
C         1.30647803499859   -4.79788127736083   -0.57107694712746
C         1.67679421838771   -3.81667287138091    0.33549771333577
O         1.20839582584474   -2.55098614881519    0.40691844205060
O         2.08814785627617   -0.02129075838736    2.78784509248513
C        -0.00276020614187   -0.32338232204129   -0.13063249365216
C         0.97981954347352   -0.65917773998100   -1.27710105346084
O         0.40977326129293   -1.39777023964493   -2.22143950287544
O         2.10888731088408   -0.26013372245169   -1.33531237989483
N        -0.83744978133791    0.79150810407704   -0.51265188984877
C        -1.75427669450215    0.83252501041937   -1.52625547738903
C        -2.27891711682407   -0.44752980773858   -2.02062022470720
C        -2.86286735497140   -0.69448303717326   -3.23645844970679
C        -3.13079721834211    0.25894899850136   -4.34045726644090
C        -3.16442708587622   -2.09486791171004   -3.24141561754897
C        -2.74158913029894   -2.58068493413027   -1.98951214659011
C        -2.86982711185408   -3.91386805293408   -1.63127257636699
C        -3.43582468501484   -4.76001910508369   -2.56337520907464
C        -3.86479142371126   -4.29448496194002   -3.80902334885945
C        -3.73758269138985   -2.96988938152389   -4.16349173902867
O        -2.21594972164782   -1.58122284877100   -1.25113631361319
O        -2.13402856650763    1.89736815213373   -1.98085965872110
H        -2.28660695478085    6.27176458858642    0.05504140308617
H        -4.25499288694117    5.44254797808862    1.27215532659648
H        -4.39500039488187    3.05283629702575    1.89612497739547
H        -2.57380000388947    1.52267608243241    1.29614686077402
H         0.44258642685475    2.44393960108483   -0.66844177799433
H        -0.26451064066266    1.58890967405853    2.15997781716591
H         3.00765266130732    4.65234441381104    3.69447687647447
H         4.92017893248464    4.37720460270028    2.17672406692111
H         4.76234426963047    2.79321674163049    0.28010828287080
H         2.71295820021312    1.50265004226446   -0.07093962380387
H         3.49548619121904   -1.54765940826491    3.58794942030609
H         4.64650749454421   -2.74728369359622    2.95993455075248
H         3.35621179621977   -3.25686680884245    4.04651458199326
H         3.95832172712135   -5.48835378105395    2.23016153475581
H         3.31325154241001   -7.25316826183315    0.62273601148073
H         1.65874678629483   -6.82249909768640   -1.12420108466480
H         0.57211188449415   -4.59969718433627   -1.33625778996327
H        -0.61031268404082   -1.20905836300074    0.08661643989720
H         1.03430370452667   -1.57543349156173   -2.94476230955105
H        -2.72777330525627    1.23732041377881   -4.09836478386512
H        -2.69122142504172   -0.10613892334554   -5.26787767418392
H        -4.20558120329561    0.35224771308366   -4.49247239591989
H        -2.53614778623103   -4.26613809994167   -0.66820304677610
H        -3.55019907241282   -5.80683373388619   -2.32587464072853
H        -4.30451586964099   -4.99389671847096   -4.50414723849607
H        -4.07064191001636   -2.61263342730413   -5.12553271677541
