66
 energy: -115.321598270823 gnorm: 0.000962204595 xtb: 6.3.3 (4ae9cef)
C        -4.01766031372314   -2.46651123480191   -2.44619678498601
C        -4.74945655313601   -1.32677658284457   -2.61084503404250
C        -4.37676187737133   -0.16361106708572   -1.92275829203576
C        -3.27113152791962   -0.14976770235205   -1.11910334025308
C        -2.45452623193660   -1.29442256274825   -0.95947325914972
C        -2.87477985838713   -2.48963378117805   -1.61732878838266
C        -2.16483855023922   -3.69147130709722   -1.42979424422839
C        -1.08105306061855   -3.72921351315883   -0.60088222665332
C        -0.64241327651887   -2.55514170910735    0.01750825513263
C        -1.27252446454447   -1.34472864143897   -0.17111621066691
C        -0.56177685173745   -0.18166624127474    0.50263336846192
C         0.87391979046344   -0.01668222949293   -0.08721282606178
C         1.94517615012678   -0.18051421578863    0.96343468406868
C         1.99000297870587    0.75410053530138    1.96976239839438
C         2.93821811419214    0.68124898411354    2.99582919668515
C         3.84315916033156   -0.34090169607681    3.01229099648128
C         3.83732094765061   -1.32085378214409    1.99935242519081
C         2.88102931031221   -1.24824305885599    0.94668519482991
C         2.92779025336492   -2.24482385496686   -0.05380682885782
C         3.85014455524499   -3.25233653135623   -0.00952213740156
C         4.78192855565362   -3.32571790133312    1.03555355422691
C         4.77488079611263   -2.37571123868214    2.01541947046697
N         0.89409781170968    1.34323665133658   -0.61198107089848
C         1.93985761640389    1.74671996240408   -1.38577829953685
C         1.81029810913179    3.10354220560882   -1.96388423359051
C         1.54840064447270    4.29253657875410   -1.33998570262968
O         1.59152755360422    5.30370991964380   -2.21417665320779
C         1.87886775499037    4.78204842743255   -3.41637736146816
C         2.03750226955968    3.43556539240429   -3.32940786428792
O         2.90966393322923    1.04100760534245   -1.56704622903374
C        -0.43150442726118    1.90547514470889   -0.61706557458286
C        -1.09166401907031    1.75954636177909   -2.00376986576879
O        -0.68423896676927    0.66013587218962   -2.63439117965297
O        -1.85553700487054    2.55240030193583   -2.47434227809527
N        -1.13236010765363    1.14650418167037    0.39470805486388
C        -1.71038723183886    1.83916463056405    1.43317524940354
C        -2.30804858213492    1.03686575708521    2.51200108802899
C        -2.90035769947800   -0.19938452662393    2.48886074892382
O        -3.39203779180794   -0.50678528385493    3.69156060798887
C        -3.12253369413290    0.52316467976937    4.51433822277709
C        -2.46811511041222    1.50763463056642    3.84915929561958
O        -1.76087272604459    3.05216307720998    1.42951495003002
H        -4.30584097545585   -3.38188032166447   -2.94260083544301
H        -5.62077878621663   -1.31750049603317   -3.24829445159387
H        -4.97170196864513    0.73132904530198   -2.02370919650813
H        -3.03898550146862    0.75417904718395   -0.58472217412986
H        -2.50416111142414   -4.58027463156974   -1.94138800829982
H        -0.54626693974281   -4.65043559196520   -0.42644851316774
H         0.22953740063643   -2.59927943684160    0.65423972405200
H        -0.48043235066962   -0.42870400312430    1.56865832493416
H         1.02613465828099   -0.70761050761918   -0.91999077095068
H         1.28172390531801    1.57130540829934    1.96997889274434
H         2.94431260906831    1.43733248454713    3.76672448122056
H         4.58086242914650   -0.41262233048481    3.79849292768780
H         2.23774112583618   -2.21458893289297   -0.88182629426338
H         3.86815866999013   -4.00002878806759   -0.78899196255245
H         5.50319256568777   -4.12939659526057    1.05314972451007
H         5.49238972280454   -2.41237075691902    2.82280931029016
H         1.35660087009154    4.53686981268682   -0.31369837942103
H         1.94599256215524    5.45905786149979   -4.24433614640926
H         2.28042685306766    2.74992790604164   -4.11385862057996
H        -0.46767322431269    2.96735063073725   -0.34043902828713
H        -1.10599466717327    0.58451374776862   -3.50506292668111
H        -3.05708256599877   -0.90610329274908    1.69818220889691
H        -3.44763928808275    0.43736659155411    5.53174336459861
H        -2.12972037054112    2.44969091201511    4.22584487325290
