72
 energy: -124.418676126861 gnorm: 0.000705434655 xtb: 6.3.3 (4ae9cef)
C         1.49370714152320   -2.98569421561078    1.96653778964898
C         2.32607261233667   -3.36671681808349    2.97889920811612
C         3.45886124635452   -2.59602724580778    3.31497296637732
C         4.32966123601621   -2.94967348816489    4.36589379307268
C         5.42345540015876   -2.18128698927016    4.65229473584029
C         5.69561905551094   -1.02586941938040    3.90259665807822
C         4.87136926956399   -0.65775452335261    2.87607054352174
C         3.73559978829813   -1.43015685419835    2.55564885341780
C         2.86351339847811   -1.07089617070212    1.50732126830182
C         1.74465843621125   -1.81051735183831    1.22963355978647
C         0.79134925899401   -1.42017482941917    0.12703572974403
C        -0.69663134594848   -1.38844475107917    0.56630173088173
C        -1.59749542911498   -1.92283947370987   -0.51884801209148
C        -1.88738948168341   -1.16563297284641   -1.62381724247849
C        -2.69816144634168   -1.66648159678229   -2.66017025454459
C        -3.00654360833609   -0.90242629141090   -3.80488365402691
C        -3.79358485883820   -1.41801123778217   -4.79581062079829
C        -4.31054715723527   -2.71869835916522   -4.68610273172445
C        -4.03112872762873   -3.48295450734178   -3.58803521015639
C        -3.21941685972536   -2.98160715575736   -2.54974373491509
C        -2.90794120163355   -3.74001811650909   -1.40240601719103
C        -2.11789521240761   -3.22546749997674   -0.41500912262165
N        -0.94136520007782    0.02979891773357    0.79224062319414
C        -2.10861014862313    0.49771935147768    1.29998490802234
C        -2.16632228454622    1.99760991430430    1.34203335834084
C        -2.03032260346477    2.67614719860068    2.54441122464145
C        -2.05476409794320    4.05999950099227    2.57182194748264
C        -2.22323551045555    4.75912747725366    1.39007582776758
I        -2.22985977058494    6.87292547020236    1.42062476860769
C        -2.38544234994613    4.09704251963934    0.18552109897065
C        -2.35702981448926    2.71455331112513    0.16528060467498
O        -3.00672713747863   -0.22743201906564    1.66079391536397
C         0.21193683064228    0.82201624746156    0.45049365970222
C         0.99827917682605    1.26814731396319    1.70484371762916
O         0.58664042886563    0.66086678236141    2.80695400920115
O         1.87186779836394    2.09005178942748    1.67279499337371
N         1.01149819263630   -0.06336435233185   -0.35505987186653
C         1.36081734774478    0.14292012014600   -1.66535514443224
C         1.18102487094282    1.53009406975756   -2.18300497126958
C         0.50635995824491    1.66927759629139   -3.39306011525158
C         0.26138309356631    2.92358521803623   -3.91953526517463
C         0.71298463806136    4.04179707312332   -3.23906363314669
I         0.30284312898030    5.96802646377796   -4.01171172637004
C         1.42275019452706    3.91939808088171   -2.05724205521059
C         1.65747324873115    2.66228512099760   -1.52815349809115
O         1.76971073521260   -0.76315968974487   -2.35699741202297
H         0.64074062297154   -3.59612352269435    1.71001271300765
H         2.12839473227409   -4.27032606044688    3.53723275679959
H         4.11543591279436   -3.84000947713954    4.93963783740464
H         6.08792891760172   -2.45747928326967    5.45771010185582
H         6.56380028754884   -0.43064091215124    4.14441974358853
H         5.07339485916685    0.23142830860428    2.29636668594047
H         3.10437872411175   -0.19724693883610    0.91925631894786
H         0.93242321907844   -2.09862742826970   -0.72383037951207
H        -0.86331640361954   -1.93466694953203    1.49903526712857
H        -1.49894115005308   -0.16003222632801   -1.71933386949774
H        -2.60890529633089    0.10018197196944   -3.88378194648243
H        -4.02525900831349   -0.82879879686229   -5.67098544723167
H        -4.93197458525855   -3.10874409621331   -5.47867432869819
H        -4.42782241524308   -4.48407575558614   -3.49838488678245
H        -3.31008482376050   -4.73899464081886   -1.31581136784241
H        -1.89142881487829   -3.81184369071208    0.46331803739557
H        -1.90503024947274    2.11814906591459    3.45993237284967
H        -1.94283355018577    4.58567661450992    3.50752741748492
H        -2.53136100226644    4.65066988671178   -0.72940343213696
H        -2.49486797804363    2.18999921523225   -0.76979492946651
H        -0.05012080039041    1.73284403490619   -0.10262049235909
H         1.11525892370086    0.93062161904558    3.57626492840463
H         0.17167438564913    0.78355369804812   -3.91260843905504
H        -0.27407795314824    3.02673356383737   -4.85067522123022
H         1.78908938291936    4.79466560790789   -1.54369163368958
H         2.21448182285136    2.57100758394459   -0.60819000719285
