86
 energy: -132.081798752767 gnorm: 0.000537536422 xtb: 6.3.3 (4ae9cef)
C         2.71584397362032   -3.40031667073393   -0.24908295239438
O         2.25684702737848   -4.37424859212938   -1.08188510356169
C         3.15217809397908   -5.37212794648499   -1.50755253188249
C         3.98403435385341   -3.38825983177027    0.32150456384700
C         4.35497412345726   -2.37037923428456    1.18291981225991
C         3.46896266431409   -1.35671717111326    1.49368109510483
C         2.20896365158809   -1.36032671129743    0.92208057869319
C         1.82305237316622   -2.36211136998568    0.04727165964176
C         0.45254291847811   -2.33688890703322   -0.58527537256700
C        -0.64362382477984   -2.56093826859045    0.47600497488392
C        -1.70414900767505   -3.58287470561004    0.13853495453166
C        -2.17130868931097   -4.40146264073404    1.15542328767060
C        -3.15022429784497   -5.35223108363029    0.92533530029716
C        -3.66938206342570   -5.49735510281330   -0.34632483682814
C        -3.22455379647199   -4.68789717236002   -1.37702030109007
C        -2.25330668350368   -3.72068457088913   -1.14516314030382
O        -1.79131183754699   -2.86968765795639   -2.10763477511158
C        -2.20853471503025   -3.03833953736047   -3.44096467264901
N        -1.20218171641048   -1.22629733034956    0.66601437526868
C        -1.76482101973236   -0.84660180048089    1.83970090850065
C        -2.28173995211277    0.55705211940963    1.86983244288653
C        -3.65060902460805    0.75933486355420    1.97193001838037
C        -4.14884571577173    2.04895188224408    2.02329929645490
C        -3.28964804912933    3.13133801936447    1.97876762840185
C        -1.91454400898036    2.94643423982289    1.88878193517167
C        -0.96851777428782    4.12075581609751    1.85588353387718
C        -1.31009853851331    5.07654845645108    0.71232201507767
C        -0.98303110361779    4.85241733118138    3.20012209990951
C        -1.42256215648709    1.64922593129137    1.84111311485715
O        -1.84656022190788   -1.60145312633507    2.78657012141641
C        -1.01560586030120   -0.44379668794547   -0.52139783878962
C        -2.24827639050779   -0.50544131711907   -1.45316973297757
O        -3.34175480258922   -0.86339013449544   -0.78268420410557
O        -2.26133591963496   -0.15183972355683   -2.59954295737675
N         0.16974693504928   -1.00168084545571   -1.11400573303966
C         1.11983967239628   -0.33612241613345   -1.82688885702066
C         1.02390514122627    1.15763595291282   -1.81872807534657
C         2.01596389499224    1.80616124115834   -1.09153538903112
C         2.05071136126666    3.19028855508620   -1.00121238407067
C         3.14077625105714    3.89244119472699   -0.22914382727601
C         3.28035176830401    3.34766425643014    1.19277001723972
C         4.46612411699950    3.76494028868231   -0.98453842070712
C         1.08021273823070    3.91873597297036   -1.67813454956858
C         0.10306047948979    3.28005893869032   -2.42171865664378
C         0.06536270619415    1.89804274163413   -2.49581023804729
O         2.05635872294047   -0.91814363069762   -2.33395767580740
H         4.01676066684400   -4.94211088011536   -2.02172518444084
H         2.59032435722311   -5.99173434048427   -2.20487636529111
H         3.49256117375804   -5.99162935711179   -0.67104337127341
H         4.69484054868085   -4.16766756884332    0.09757861876145
H         5.34558678687685   -2.37638237911185    1.61285913988420
H         3.75576616854854   -0.56833733381755    2.17324858337984
H         1.51149371763856   -0.56770599608318    1.15474421205573
H         0.41760852533905   -3.08295242384559   -1.38042423526736
H        -0.19570268130367   -2.85912808151813    1.43082273235002
H        -1.76643512250402   -4.27594532179042    2.14769526415167
H        -3.50043905157253   -5.97519341638409    1.73342345072331
H        -4.42780362850707   -6.23948363462210   -0.54683519938961
H        -3.64320618892653   -4.81565469522274   -2.36284627891682
H        -1.90973147450149   -4.01634412893176   -3.82902583845318
H        -3.29114270739091   -2.91601125160309   -3.54896958880200
H        -1.70528854873247   -2.25092329889200   -3.99979500617532
H        -4.31003858949190   -0.09384888350937    2.00951489489801
H        -5.21384342826452    2.21091698288426    2.10264320238932
H        -3.69588782854329    4.13055509178107    2.02297033100353
H         0.04303041817696    3.73698024903967    1.68156718423984
H        -2.28397948931991    5.53482367994626    0.86344974316381
H        -1.31946915941098    4.54220063425994   -0.23495697475344
H        -0.56664824078021    5.86832878666499    0.65609344556749
H        -0.73047697695189    4.16858330131299    4.00748721631723
H        -0.26029268309140    5.66530895153074    3.19421732854320
H        -1.96763404267839    5.26829453291931    3.39966812586508
H        -0.35232852463324    1.49033527758083    1.80049711866223
H        -0.88257386515468    0.62648800303682   -0.29813259217080
H        -4.11924174504641   -0.84979648382339   -1.36390215725085
H         2.76669808343535    1.20416313928745   -0.60080681956114
H         2.88243193094598    4.95571409442806   -0.16433329102997
H         4.01608549308189    3.92896208343389    1.74425219282517
H         3.60560938538083    2.31072542303374    1.18238955574067
H         2.33149777409144    3.40744468646690    1.72202250605709
H         4.75186282059583    2.71995992588548   -1.07603057523930
H         5.25532911704775    4.29689087746843   -0.45761239903655
H         4.37339677969312    4.18217402802482   -1.98468595545495
H         1.09625274240832    4.99857714719849   -1.63091921380286
H        -0.63515582284548    3.86378447868448   -2.95258406480486
H        -0.69310348792350    1.39922448643302   -3.07699924363907
