72
 energy: -147.031039805793 gnorm: 0.000630985036 xtb: 6.3.3 (4ae9cef)
C         2.05636085293428   -3.62767348818202    1.47144466747024
C         1.93625765477375   -4.79377880730394    0.52801161201392
F         0.68058088175141   -4.97210953285393    0.06560307356233
F         2.70682432447317   -4.66382704654506   -0.57057922891631
F         2.28915542179044   -5.95677771467076    1.08595139748681
C         2.60300923755750   -3.84507421623405    2.72907057522940
C         2.72582348565227   -2.79853199902683    3.62393091820738
C         2.30633377198652   -1.53287423990034    3.25873070237057
C         1.76744572675276   -1.31545786150069    2.00416866138537
C         1.63255642203456   -2.35152332352924    1.09051768792848
C         0.98707900478991   -2.12079157538753   -0.25743821853847
C        -0.54320164338896   -2.27850359859686   -0.13130481627213
C        -1.26652633418391   -2.67035774669541   -1.40472574388579
C        -2.64231567398211   -2.93775746360344   -1.39621515602732
C        -3.45846431549491   -2.93377688409632   -0.12665565193096
F        -4.69523513741164   -3.42439578027696   -0.31962536223326
F        -3.63892560835921   -1.70396691842226    0.38197287627078
F        -2.92727863305684   -3.69051956609986    0.84541356733635
C        -3.31662205996739   -3.21551750865352   -2.57826445137127
C        -2.64290563996802   -3.24900513767625   -3.78459767593733
C        -1.28306750054705   -3.01226822190399   -3.80513212626017
C        -0.61167403720571   -2.72480247137328   -2.62985169685323
N        -0.93345984723035   -0.92633998553698    0.25641809592677
C        -1.36281883721720   -0.69177169926303    1.54268491598263
C        -1.75562282242379    0.67878975565428    1.88516642469469
C        -2.30568217727832    1.07081028253143    3.07367248023461
C        -2.59995060893977    2.45526042550415    2.94244479403632
C        -3.16244648873042    3.42977600157759    3.76795853998513
C        -3.29330041982407    4.70538508031343    3.26838668505816
C        -2.87799452447138    5.02847536967686    1.97293579870114
C        -2.31734501344895    4.08538509728539    1.13635570754339
C        -2.18764750409241    2.79889794164065    1.63711699749765
O        -1.66971669442582    1.72187134897349    1.00703010985042
O        -1.48368250073051   -1.59431903004490    2.34527056945780
C        -0.15547999068325   -0.04019652736063   -0.56380537512988
C        -0.88370195559165    0.19507456192786   -1.91920991853758
O        -0.10307811321991    0.21211032456503   -2.99830702495001
O        -2.06062961221116    0.37471239170116   -1.97532647474461
N         1.11853255764944   -0.73580857757295   -0.71309211596476
C         2.37624439089585   -0.22198639953462   -0.87647854444972
C         2.51695463183207    1.20818091138290   -1.18627184020673
C         3.69480657609846    1.88647092245688   -1.32434089533649
C         3.34974526850945    3.23466471385287   -1.61831675978827
C         1.93978396880780    3.26338949159815   -1.63756047602936
C         1.22379397480342    4.42191766349263   -1.89492116284011
C         1.95742044310874    5.56555587177145   -2.13481014743834
C         3.35580608331658    5.55686744498190   -2.12125234082432
C         4.06643097030674    4.40607846045099   -1.86700053123171
O         1.43954375522611    2.03366532508140   -1.37494697554474
O         3.35467163153162   -0.94307154174224   -0.81138365548294
H         2.92838144078112   -4.83580474238391    3.00537801273598
H         3.14731680329335   -2.97452451305417    4.60092559018881
H         2.39460468137792   -0.70961623820444    3.95090104605192
H         1.45388528297573   -0.31709250456512    1.73806113230358
H         1.44159699856692   -2.78516588035333   -0.99229717933439
H        -0.80103553088053   -2.95541780081252    0.68731488605756
H        -4.37755959503421   -3.40779372170589   -2.55204051431648
H        -3.17934965937441   -3.46064998103334   -4.69577664061768
H        -0.73662940384201   -3.03992720727249   -4.73516707484365
H         0.44904434750703   -2.54378282506469   -2.69316846388345
H        -2.47975592361755    0.43415605478781    3.91619845079699
H        -3.48571021397194    3.17978044426392    4.76626591136469
H        -3.72795963149591    5.47836338659054    3.88409348201803
H        -3.00278628950849    6.04076213195471    1.61969534422889
H        -2.00237148501391    4.32513650116032    0.13378657839400
H        -0.04073120538337    0.94163362139490   -0.09582713981772
H         0.82488836724608    0.02540916323845   -2.78707978604402
H         4.67165763332526    1.46050448579999   -1.22427934208677
H         0.14610791368555    4.41592766596290   -1.91063140642826
H         1.44086168637028    6.49071069726947   -2.33949382270045
H         3.88424851142213    6.47751873238691   -2.31691387814191
H         5.14491092907057    4.39931800679734   -1.85878867747006
