66
 energy: -134.187221975599 gnorm: 0.000510160851 xtb: 6.3.3 (4ae9cef)
C         1.74617599900274   -3.38894710522139   -0.42045330086425
C         1.39517551527065   -3.53537235964628   -1.87465435887199
F         0.05792086944622   -3.60963360477618   -2.07505964071240
F         1.90005043501971   -4.64599680049438   -2.42711123876873
F         1.81613814873625   -2.52011409066635   -2.64846488167396
C         2.49127799518493   -4.39557261913929    0.18211138564907
C         2.81866853069212   -4.31545443354283    1.52147739392802
C         2.39749371728227   -3.22856129927925    2.26679688181424
C         1.65391799064793   -2.23012354988630    1.66988518456606
C         1.31944461876926   -2.28776014834256    0.32160286874087
C         0.49763620023901   -1.16898460933756   -0.26005537786631
C        -0.95492693657581   -1.15333890353314    0.25784530486045
C        -1.89811684486711   -1.94366862048348   -0.61141207091562
C        -2.46074027682267   -3.15761933316702   -0.21472069301507
C        -2.15766986932665   -3.76333938655390    1.12692146605029
F        -2.80053023068333   -4.91880526431373    1.33935022988127
F        -2.46832067638905   -2.97710563305711    2.17198558417511
F        -0.84183123743752   -4.05296581528369    1.27418844890188
C        -3.30488705298702   -3.85383488432825   -1.07167486199080
C        -3.59741855943100   -3.35217284544073   -2.32463893509903
C        -3.04224561918182   -2.15096534888698   -2.72763968719920
C        -2.20012704462367   -1.46007068161464   -1.87913693378695
N        -1.27474179010855    0.27228399012378    0.25629607994639
C        -2.56386739067763    0.67770928970560    0.46088649183465
C        -2.83144837393020    2.11513890552880    0.46274490846470
C        -4.04323866228134    2.74489939614140    0.61112590296210
C        -3.78981864434286    4.12667953513349    0.50403179688510
C        -2.44304425529454    4.26015086253848    0.29714798033647
C        -1.56751651585445    5.44669801248164    0.11589897646620
O        -1.86052412617421    3.04686478982828    0.27311300990798
O        -3.46152585471940   -0.13147721155893    0.60723709297499
C        -0.08720502824591    1.08455069864046    0.22921313141188
C         0.04112388189406    1.96595441626384   -1.03296886555637
O        -0.54335817082886    1.41676342541901   -2.09155203552606
O         0.66956979093140    2.98601765975188   -1.07333763384957
N         0.99682560035671    0.12357527791042    0.20062838647532
C         2.33057891697127    0.42618825522131    0.05483545696315
C         2.74720890475310    1.73439137300073    0.58922069122716
C         2.41272829095109    2.42012476403154    1.72980564119328
C         3.24395414468913    3.55787839245609    1.76232362794843
C         4.02789938238650    3.49189175304193    0.64280707732644
C         5.07066885223503    4.41088172733878    0.11968612741352
O         3.73923138960469    2.38439373295562   -0.05457331316420
O         3.10913895091857   -0.37161750486432   -0.42145574380333
H         2.81478087950057   -5.24187736825046   -0.40337121609181
H         3.39957480714945   -5.10064603480817    1.97921362155619
H         2.64674371195258   -3.15855963794502    3.31455103262709
H         1.33129843530680   -1.38028844816480    2.25247022671277
H         0.49598310897556   -1.19657385282972   -1.35534784905618
H        -0.97879657743923   -1.51345959514870    1.29215208027853
H        -3.73321514043596   -4.79098025778071   -0.75220938413613
H        -4.25546464310343   -3.89954010329070   -2.98117757268834
H        -3.26367552538901   -1.75150351771285   -3.70566011047341
H        -1.77436879639164   -0.52083906701408   -2.19458662206029
H        -4.98190263484502    2.25746009185069    0.77407076403840
H        -4.50630713283813    4.91934062493642    0.57016691836153
H        -0.61450329493822    5.12649509083839   -0.29898387498138
H        -2.03649284535484    6.16770652518489   -0.54938943164174
H        -1.38300342251733    5.93581835716013    1.07225101828736
H        -0.01229926959640    1.74375526860693    1.10349820573740
H        -0.38874376644559    1.94794774975269   -2.89082473247424
H         1.69441979133649    2.13581151110886    2.47204265632400
H         3.25884456869465    4.32080151780211    2.51329006380605
H         4.74085207003990    4.86066342852149   -0.81614179450249
H         5.26690726094732    5.19677717064271    0.84246407513063
H         5.98964745020170    3.86215734240717   -0.07873563042385
