86
 energy: -160.082767642567 gnorm: 0.000563999080 xtb: 6.3.3 (4ae9cef)
C         2.40554985977358   -4.28985596984265    1.22594272400905
C         2.34796507895253   -5.17641048523177    0.01094234080312
F         2.88733200578836   -4.63252959776624   -1.08747692084709
F         2.97808329023952   -6.34565529899895    0.19254240474126
F         1.07803151088229   -5.50668298917617   -0.32733842423018
C         3.13615930704230   -4.72979368612284    2.32358860136854
C         3.22642434721361   -3.95084259915911    3.46148009575239
C         2.58564632923517   -2.72536685614145    3.50399290184909
C         1.85655422809326   -2.28939648442361    2.41418858995490
C         1.75437299257830   -3.05456583847427    1.25783210344697
C         0.95159031446921   -2.52550521663412    0.09532920615330
C        -0.57124290160596   -2.52024338102295    0.36797212373576
C        -1.28304374617246   -3.72125143068883   -0.19746204251026
C        -1.56723500164199   -3.93515959436360   -1.54848825897338
C        -1.29853701236260   -2.95286968126965   -2.65688429760145
F        -0.22083270085451   -2.16283550229539   -2.50674990714396
F        -1.10803295043865   -3.56884520123821   -3.83653010027755
F        -2.33415555563828   -2.11248548387499   -2.85594839066437
C        -2.21693224798962   -5.10048746864185   -1.94801327891213
C        -2.56149090884398   -6.07237938176497   -1.03106911585414
C        -2.26567288376563   -5.87925139477355    0.30579112296614
C        -1.63927221805973   -4.71690711312965    0.70721005005003
N        -1.01899093140508   -1.24585738349061   -0.17821090396713
C        -2.35701636790160   -0.95672935946135   -0.22488320230911
C        -2.72243140999285    0.39642438441468   -0.72813237938094
C        -2.20729912782675    0.92692967540008   -1.90614903915154
C        -2.61798149964628    2.17933302223497   -2.32785689604724
C        -3.53289454791339    2.90520063594706   -1.58710219834357
C        -4.07893309796945    2.37490111438283   -0.42014223858528
C        -5.07859568255893    3.12448547665597    0.35608740053877
C        -6.18656449023201    2.47311514572654    0.89355912910101
C        -7.13055863757167    3.17564128226199    1.61906052903382
C        -6.98017388508416    4.53705142814004    1.82469556065142
C        -5.88088807623845    5.19345801347441    1.29704449036541
C        -4.93848798095087    4.49429694231278    0.56568731120313
C        -3.66904661457902    1.11146733976447   -0.00734688800036
O        -3.18268451729739   -1.77789095597866    0.11418738108888
C         0.06506073685463   -0.30384301093759   -0.11877500211580
C         0.06900885305372    0.54141380149442    1.17838885094520
O        -1.13847129885727    0.64059909009951    1.72415930936474
O         1.04999792898868    1.06530008297375    1.62627277903068
N         1.24428657188810   -1.12613915433232   -0.19168932748077
C         2.52558756806138   -0.72579671540078   -0.43706516279134
C         2.67753776014138    0.65968475818322   -0.96407087160196
C         3.48272725108839    1.56447502997431   -0.29129609168402
C         3.68290737425404    2.84616600707193   -0.79627353874949
C         4.54201930289683    3.80401357785377   -0.08426458498553
C         5.73587110989531    3.38385887890904    0.49759062802425
C         6.55319326468150    4.28529170877010    1.15385526464932
C         6.18917600570732    5.61833123340145    1.24477794130628
C         5.00137082108537    6.04535017926553    0.67485506027600
C         4.18519687455180    5.14683794387810    0.01312434268350
C         3.07146804781233    3.19623527359322   -1.99819621315006
C         2.29140369834857    2.28372909521518   -2.68525815915754
C         2.08977151382273    1.01358869364269   -2.17499113367612
O         3.45853428990068   -1.47946709501980   -0.26378403161750
H         3.64032751612434   -5.68255108723074    2.28126393642656
H         3.80140958459332   -4.29807454534122    4.30548713445907
H         2.65777771042679   -2.10353222454104    4.38327626411807
H         1.38152720397199   -1.32177537987387    2.45006811745681
H         1.17924613189794   -3.09993110139734   -0.80677413964810
H        -0.74134027374716   -2.51855537065317    1.45600335276676
H        -2.44805488355731   -5.24414772250574   -2.99227281333730
H        -3.05950058863029   -6.97022864930961   -1.36128379373486
H        -2.52675333817523   -6.62874530077460    1.03678637626804
H        -1.41867585212405   -4.56906303906970    1.75380211332115
H        -1.52436248211775    0.35382949739736   -2.51376884708801
H        -2.22629526155231    2.58881094105809   -3.24717112461340
H        -3.85467731796202    3.87640219897923   -1.93311356659135
H        -6.31634869912214    1.41503499471222    0.72054635313514
H        -7.98874030584429    2.65969344682032    2.02421717258998
H        -7.71703377278808    5.08466680097711    2.39333285601573
H        -5.75727537301116    6.25472608187644    1.45702941878453
H        -4.07516867395186    5.00929944070308    0.16928495357981
H        -4.06913392940166    0.67576639636385    0.89553379605350
H         0.02509346075697    0.42217872246471   -0.94132428692648
H        -1.12530320194157    1.21135370492710    2.51082829944780
H         3.93187269304225    1.27054829558701    0.64441112866573
H         6.03233409695168    2.34876197103703    0.41435922702662
H         7.48018902389865    3.94738540754539    1.59379906736057
H         6.82880734344798    6.32210384194561    1.75671306330666
H         4.71043281724006    7.08349993102408    0.74625507129158
H         3.25196588827169    5.48312852913167   -0.41557280442595
H         3.23651223632788    4.17975342463103   -2.41328123697116
H         1.84564721388213    2.56047053036026   -3.62950390289957
H         1.51015708923313    0.28705377778006   -2.72662582910165
