90
 energy: -136.808761103250 gnorm: 0.000824937144 xtb: 6.3.3 (4ae9cef)
C         2.69587939384107   -1.92010832345009    3.30024819019171
C         1.65428489740347   -1.48481177757333    4.06837188448649
C         0.52199330901938   -0.93115911441129    3.45519228835307
C         0.45427859584525   -0.81022874184967    2.09504396082629
C         1.51685311896273   -1.23747173722503    1.26815430906181
C         2.65591075865039   -1.81597798421948    1.89411702337238
C         3.72692740668404   -2.28323812430792    1.10601361231236
C         3.67935465705235   -2.18763782521182   -0.25444813926625
C         2.57448349071591   -1.59477863092210   -0.87468668836880
C         1.51345236503091   -1.11314582460563   -0.14806253467120
C         0.36725997628846   -0.48506474929512   -0.89796088047296
C        -0.95613827825399   -1.30535056237146   -0.80678210254119
C        -1.29747450422089   -1.95706764010471   -2.12785276355159
C        -2.23461016940388   -1.39745594829866   -2.95734228160232
C        -2.53025488688333   -1.95486044079581   -4.20897744919864
C        -1.87510676263455   -3.07380152941308   -4.63265851833190
C        -0.91542212702570   -3.69499816217622   -3.80680600454756
C        -0.62376658335941   -3.14419531336084   -2.52820092915428
C         0.31617420317830   -3.81785489106052   -1.71783782431224
C         0.95018676036801   -4.94705944693650   -2.15685156086209
C         0.67772181666698   -5.47205416385104   -3.42750495105663
C        -0.24248567575392   -4.86035756749509   -4.23000358356098
N        -1.94681850172641   -0.33597206006335   -0.36655949032124
C        -3.09158861460674   -0.74466108309313    0.25199354514431
C        -3.95659669239056    0.36232037792791    0.75584505273550
C        -5.08371626099207    0.74355780173501    0.04390358407403
C        -5.89076031882542    1.75935695282174    0.52211526981030
C        -5.60060750614723    2.40582471516420    1.71639891077215
C        -6.49153798715667    3.51251339368591    2.22372569298325
C        -5.70310668618005    4.81193325320684    2.40058656854508
C        -7.16651219533249    3.10174232960713    3.53490115684166
C        -4.47904312163570    2.00205138360745    2.43183105561612
C        -3.66203158023086    0.99344794142405    1.95898282754918
O        -3.35734757238641   -1.92182187303284    0.36300136348673
C        -1.43382112960298    1.00493050900233   -0.46707664154414
C        -1.88177915511728    1.68454059236184   -1.77599083324790
O        -0.87154645993971    1.87669999729978   -2.62115626769839
O        -3.01350539259678    2.00279445276003   -2.01083156574024
N        -0.00522513700535    0.83463691291749   -0.41281223262271
C         0.77162949650523    1.80086062583609    0.14715634947461
C         2.24263434071801    1.59279025315267    0.06213523095943
C         3.00429475349042    1.54644552479041    1.22293003756894
C         4.37332883220733    1.38658107021608    1.14832712910969
C         5.01697667010697    1.30044997290474   -0.08087379527774
C         6.51347875870785    1.13148699107520   -0.16628000992619
C         7.22986859765100    2.33942945416258    0.44175382144743
C         6.95380131082409   -0.16322066396768    0.51950223657075
C         4.24972404137645    1.38698762269212   -1.23577691130178
C         2.87636955855280    1.52858843903095   -1.17149664077595
O         0.27079341009035    2.78201989296979    0.66231949492502
H         3.57191667640798   -2.35709469061274    3.75791778199010
H         1.69184689230186   -1.56787297971384    5.14438227341030
H        -0.30323201136941   -0.59899587562938    4.06760844853640
H        -0.43114203204919   -0.38100478801938    1.65821547149865
H         4.58091350364196   -2.72234088143827    1.60106416781880
H         4.48909633032014   -2.55869032825365   -0.86468972495657
H         2.56124791429602   -1.51635108699520   -1.95212328551993
H         0.64878486431047   -0.40926478396662   -1.95839525871476
H        -0.89782573119075   -2.08105021110686   -0.03444566184205
H        -2.77596815123791   -0.51691135847279   -2.64734107948917
H        -3.27846290549051   -1.48490151804836   -4.82985215214030
H        -2.08663241010064   -3.50652488320145   -5.59980585456097
H         0.53953938262302   -3.44792632372702   -0.73064654330688
H         1.66484333127250   -5.44385510100501   -1.51718156903193
H         1.19003037734320   -6.36315528178273   -3.75906817814579
H        -0.47489696325525   -5.26214004962972   -5.20603259477947
H        -5.32235333623261    0.24832909922890   -0.88475964039880
H        -6.76222096167737    2.05372433717777   -0.04504573944137
H        -7.27445186039897    3.68791472076670    1.47729489554789
H        -5.20039025539668    5.07822504553212    1.47311173360088
H        -6.37341363630075    5.62266078861558    2.67770808125407
H        -4.95195487448412    4.70835485103837    3.17982034496726
H        -7.85052006831986    3.88017494881513    3.86597765983673
H        -7.72920001095843    2.18078353972091    3.39854855344448
H        -6.42740253495275    2.93925542468336    4.31551919662856
H        -4.23346519708611    2.47995174501299    3.36834870412146
H        -2.79635804749757    0.68830655297441    2.53108104452150
H        -1.77805007434047    1.65035827361416    0.35448212904402
H        -1.18004700100747    2.33076295084543   -3.42279690814119
H         2.51331055196490    1.62120513056774    2.18173503031230
H         4.94534734561277    1.33464525319274    2.06232757416125
H         6.79056426518803    1.06834647364018   -1.22457625350728
H         7.00466156218827    2.42901599474434    1.50135352274960
H         6.91496898215095    3.25515746488336   -0.05359519920428
H         8.30659360639734    2.23543323753895    0.32662353522916
H         6.43462814447096   -1.01436399584296    0.08556358515498
H         8.02507259623316   -0.30749817443046    0.39713334317149
H         6.73056234894073   -0.13260199852632    1.58278389958302
H         4.73426141306142    1.34150646714209   -2.20108351297709
H         2.29294075410617    1.60079672941654   -2.07796981672349
