86
 energy: -137.007804798655 gnorm: 0.000317768044 xtb: 6.3.3 (4ae9cef)
C         0.70842634161523    5.81927559170048   -1.97941903903046
C        -0.02899534304349    6.22835622197019   -0.90586633348176
C        -0.34920338516704    5.31195837345931    0.10515606516855
C         0.06834663192798    4.01250789064962    0.02744800492492
C         0.82660209187838    3.54872099662230   -1.07086205430050
C         1.14882554903068    4.48382671548870   -2.09426481816225
C         1.89534890659442    4.06600855970050   -3.21496363531403
C         2.29601795411185    2.76716324623500   -3.33594748061560
C         1.97088970210849    1.83580989546613   -2.34193771247208
C         1.27097816245187    2.20713247947025   -1.22159586599467
C         0.91322692227402    1.15999461793202   -0.19189098822832
C        -0.40781347563780    0.45224861462230   -0.58358296484567
C        -1.58555911433577    1.03751521466046    0.15203690303885
C        -2.41305479110727    1.88526500222927   -0.54320495737115
C        -3.54379317332680    2.45574947811058    0.05169747040407
C        -3.86449995252034    2.14331533683056    1.34110346454620
C        -3.02815913643036    1.30365998580003    2.10394740791794
C        -1.83978418062916    0.77700940462013    1.52568952206850
C        -0.98512343355251    0.01366137171938    2.35213113778620
C        -1.31736964715695   -0.26706858474790    3.64795635791027
C        -2.51887343563565    0.20382366834719    4.19493010184832
C        -3.34649745047687    0.98505091050445    3.44078612931186
N        -0.14049079444624   -0.96257204846317   -0.36492922725051
C        -0.99385913689947   -1.98012304680442   -0.10790581132732
C        -2.42511534239250   -1.69029454612847   -0.12099758763924
C        -3.17271442699658   -1.02421290098948   -1.04860460502196
C        -4.53104295047140   -0.91342254722162   -0.68334437890725
C        -5.58550099390392   -0.21041267968736   -1.47863379232065
C        -6.77267954329175    0.13890369972917   -0.58309330812767
C        -7.21229975479997   -1.08631921567770    0.21476341432299
C        -6.11942983418794   -1.49696963990777    1.20361837150732
C        -4.79927401938277   -1.50710334808084    0.51614773804912
S        -3.39679862510156   -2.24548255297435    1.20346251060141
O        -0.55184717431523   -3.10524235430200    0.13738530612584
C         1.28897774563067   -1.21608725728654   -0.25638109421739
C         1.82246724119072   -1.98202757489704   -1.50535031383583
O         1.44233728663149   -3.24113911243190   -1.55974278784097
O         2.51978153954390   -1.45940045678926   -2.32620225380170
N         1.88110875864906    0.07865565833925   -0.09483046749540
C         3.19900431836303    0.35817871808565    0.12921361703237
C         4.10662875951207   -0.80482682248600    0.15561829659460
C         4.08718727972258   -1.94157124666794    0.91052053494040
C         5.18489960060105   -2.79520892070420    0.65741391685393
C         6.02322714909420   -2.29470466521440   -0.29473837715320
C         7.25643653445890   -2.96845324932098   -0.78878548796137
C         7.22372194717230   -4.44543900683717   -0.39102892576311
C         6.85257138937712   -4.58718136447211    1.08332256360204
C         5.41663369517814   -4.11983873406170    1.31602588358466
S         5.49839808685495   -0.75183191006540   -0.87132596547439
O         3.58128122888746    1.49974488877859    0.27854758697030
H         0.96741476620359    6.51418016507520   -2.76573245360048
H        -0.36491472701787    7.25178711808096   -0.82602264781263
H        -0.93066959648950    5.63936604999011    0.95482778560230
H        -0.19862745947109    3.33947290534431    0.82712277835930
H         2.13891452277239    4.79404584990760   -3.97553434806796
H         2.86455909625283    2.44109532896902   -4.19364168760760
H         2.29552803674933    0.81356780409958   -2.46594700495039
H         0.83217473959579    1.62710328426442    0.79627806699527
H        -0.56376847209096    0.60241372062766   -1.66209478332001
H        -2.19488719325233    2.11276982732384   -1.57675649425088
H        -4.16535673272581    3.12286283487003   -0.52605482027643
H        -4.75426413092925    2.54553814318647    1.80377365614949
H        -0.04479842526782   -0.34621729365888    1.96887186407960
H        -0.65031608583315   -0.85585037419787    4.25958871375394
H        -2.77287530937863   -0.04199640164385    5.21499464287879
H        -4.26143675265398    1.38033642372254    3.85880712070007
H        -2.77334128776354   -0.64020488430667   -1.96997392735085
H        -5.91578935745515   -0.86158638894301   -2.29411179513019
H        -5.16505651118449    0.69215560838426   -1.92683621326083
H        -6.47985389952194    0.93244019659166    0.10741420264980
H        -7.59939248141092    0.50603401715914   -1.19309970707428
H        -8.13447507570806   -0.87436201230914    0.75760014047569
H        -7.40750976093420   -1.91081466513434   -0.47357570912865
H        -6.33519121355783   -2.47822771914753    1.63145632303910
H        -6.08071192406053   -0.78225086037320    2.03284407594811
H         1.46033729678936   -1.86668205494844    0.61929475587555
H         0.76668650708915   -3.45789265418165   -0.85816181816804
H         3.34492908331538   -2.15852622813832    1.65972758689557
H         8.13573190554218   -2.48541566684956   -0.34937173880416
H         7.33516208496629   -2.86284098940107   -1.87267978158554
H         8.19826923655854   -4.89788584674943   -0.58090182308083
H         6.48257372061516   -4.96779951497075   -0.99895393711831
H         6.95688516197408   -5.62650772434956    1.39972693933906
H         7.53412726274642   -3.98110528509755    1.68394079107290
H         5.20852420753678   -4.04427527326186    2.38602198462319
H         4.71787006035437   -4.85132919475692    0.89672819098019
