72
 energy: -124.969023901964 gnorm: 0.000497222270 xtb: 6.3.3 (4ae9cef)
C        -2.44984960700604    2.78930000773813    0.65901598888868
C        -3.24889501485950    3.25706376918752    1.66251054487841
C        -3.08626626629995    2.80623747923463    2.98883795421548
C        -3.89373597668059    3.26564687144430    4.04954509641286
C        -3.70866401481781    2.79530478582354    5.31923142165371
C        -2.71280441489647    1.84225380218660    5.58688910544924
C        -1.91164147804094    1.37860246943853    4.58192687262848
C        -2.07449978380206    1.85098096073321    3.26316952634087
C        -1.26158858164153    1.39216631138168    2.20887913664391
C        -1.43675233194216    1.84908748537305    0.92827835791858
C        -0.62751324814727    1.30146841554821   -0.22392058314715
C         0.85144860828103    1.04513819598893    0.09321884154087
C         1.76914290780831    1.48270522845866   -1.01969683986922
C         2.70891479576079    2.45391830301912   -0.80157806504444
C         3.55775607720321    2.89145059397942   -1.83747000335873
C         4.53084817816816    3.89205483573738   -1.63437836304988
C         5.33802306368325    4.29826358370967   -2.65946153873773
C         5.21008359764242    3.72361593874706   -3.93380705859410
C         4.27857922226448    2.74991364153565   -4.16159940592252
C         3.43073047251253    2.30866435250604   -3.12498754635732
C         2.45787406282931    1.30657556429373   -3.32115361939553
C         1.64712655011993    0.90556098208553   -2.29874134235938
N         0.90698711465471   -0.40055179035756    0.31154271452138
C         2.06371752852717   -0.97923804996990    0.71235227775690
C         2.00030279154853   -2.46752201527535    0.89725478325557
C         1.42316131187744   -3.04618560776654    2.01937973579420
Br        0.66280151443366   -1.93781775702741    3.36139902178904
C         1.39728801664568   -4.41821986208696    2.19040484434174
C         1.97060577791985   -5.22886280343145    1.22728289403967
C         2.58136837630040   -4.66905904068593    0.11729390105487
C         2.60389885397649   -3.29511148555484   -0.04222131391628
O         3.08007403751852   -0.34596768508981    0.89206914169293
C        -0.36884125145683   -1.04906159804918    0.08859954633112
C        -0.23221445613230   -2.32988960084834   -0.75203914197347
O         0.34944886911700   -2.10179021514430   -1.92436725246195
O        -0.59386338544015   -3.41513790422721   -0.38773667183546
N        -1.13337592478100   -0.02513163989461   -0.57599279559007
C        -2.21170009884061   -0.16575427607697   -1.38281173362103
C        -2.73884837412924   -1.56339599839749   -1.50924780039990
C        -2.63640933747281   -2.23261759178671   -2.72353880513536
C        -3.14812848186874   -3.50953165971558   -2.86668363814445
C        -3.78860720250409   -4.12155580508732   -1.80177532533988
C        -3.93576526315556   -3.45348024082496   -0.59952472207076
C        -3.41625836660111   -2.17820947527323   -0.46248662274187
Br       -3.66116304572358   -1.25500808653805    1.18953740417755
O        -2.71425135292437    0.76980243304591   -1.96599434176136
H        -2.59358486658145    3.12371642217744   -0.35729015533469
H        -4.02438935742020    3.97865391946337    1.45006801803913
H        -4.66247849084647    3.99544739918157    3.83882425147086
H        -4.33026801711646    3.15171795267233    6.12779386003716
H        -2.58693221850564    1.47829648303363    6.59580081361262
H        -1.14674496845675    0.64041424213006    4.77616951630095
H        -0.49752172239561    0.66857893162816    2.44944372318644
H        -0.74626533727421    1.94763821376100   -1.09928949583088
H         1.15296463672527    1.55059864938750    1.01728359502228
H         2.81634829805544    2.89512255301211    0.17851242729113
H         4.62596627958526    4.32963894426616   -0.65122866837162
H         6.08154248847295    5.06495345565684   -2.49768612776922
H         5.85572879552870    4.05842590685339   -4.73258092236327
H         4.17689820643676    2.30445901341177   -5.14118966992680
H         2.36225771547483    0.86092142518157   -4.30129521074305
H         0.90710412591329    0.13750672939248   -2.46353984085085
H         0.93352512195292   -4.84387403680331    3.06679592903757
H         1.94579732872238   -6.30040836538869    1.35153146481713
H         3.04250393403121   -5.30365821613582   -0.62411319958939
H         3.08427346759255   -2.84305189855075   -0.89792388171294
H        -0.83803574781246   -1.34193505304315    1.04724888363656
H         0.44158736067833   -2.92260543923183   -2.43525701934235
H        -2.14316003785165   -1.73808088796283   -3.54767621721798
H        -3.05070355673800   -4.02541299296371   -3.80980826573547
H        -4.18547877495573   -5.11938644030216   -1.90746239988539
H        -4.44947913283534   -3.91435173290227    0.22946301176169
