68
 energy: -113.070189900426 gnorm: 0.000924130320 xtb: 6.3.3 (4ae9cef)
C        -2.24236054752433   -2.68249569992499    1.72080997913657
O        -1.18134222272896   -2.89124457571295    2.55008922174499
C        -1.34239222081751   -3.75061037965063    3.65304984649259
C        -3.44296428053996   -3.37792101559340    1.80657508078982
C        -4.47070196667363   -3.11321207795971    0.91837157123521
C        -4.31776471788564   -2.15194586732581   -0.06175657910759
C        -3.12622920454276   -1.45359535149612   -0.14935939076791
C        -2.08179827167616   -1.70835791070029    0.72461764495932
C        -0.80875656404098   -0.91168607280091    0.64164355645913
C         0.04698339000818   -1.20355345638928   -0.60923800127386
C         1.00074023506959   -2.35914820534992   -0.64923590015568
C         1.21586285932633   -3.23453774993742    0.39609278489896
C         2.09985581884043   -4.29301903041967    0.25225352443132
C         2.77149831125923   -4.47123781831853   -0.93965881312695
C         2.56429201561145   -3.60415451724950   -2.00186629826646
C         1.67748071144695   -2.55006046018792   -1.86629939623929
O         1.39283197623356   -1.63619323143217   -2.85434647727566
C         2.05550125900342   -1.76366094727460   -4.09170603688133
N         0.70550747895750    0.09555493595226   -0.85358258810790
C         1.98631058373780    0.38324418261762   -0.43204042766948
C         2.30640505514593    1.84537220548899   -0.43241750412309
C         2.12457993285614    2.64665246667941   -1.55564990842548
C         2.43020571305502    3.99452487012106   -1.49821713671567
C         2.91048173011999    4.55031050813744   -0.32373288428592
C         3.10977842369460    3.75185440814000    0.78969547904816
C         2.81808838795821    2.40103449904615    0.73461846260397
O         2.79876396184672   -0.45583919697924   -0.12324208397389
C        -0.38100123781549    1.02912060432833   -0.68086427286794
C        -1.24139528159653    1.06603884298869   -1.97262382371582
O        -0.62360958460020    0.60485240701270   -3.05444478432445
O        -2.34582400043876    1.52316043732746   -2.00467569776434
N        -1.08411568809223    0.52558912607258    0.48277450112889
C        -1.35550488536642    1.27123915288965    1.59630555672630
C        -1.26229464781172    2.74940727025101    1.39849090543775
C        -2.08615441095234    3.42553750218007    0.50544524613612
C        -1.95187391876171    4.79428722911986    0.35026048280570
C        -0.99573371149283    5.48941189644017    1.07252780010111
C        -0.18055079733785    4.81798420303048    1.96882383080037
C        -0.31888938053751    3.45267875274405    2.14035665386180
O        -1.62325694275016    0.75321713792865    2.65797342457870
H        -2.15599376414045   -3.41724210219021    4.30309096413865
H        -1.52272407848596   -4.78305951963513    3.33554405643800
H        -0.40224263211926   -3.70314802025190    4.20081407706122
H        -3.59008220825797   -4.12644333946063    2.56888925415291
H        -5.39734607158536   -3.66114295464183    1.00406714724305
H        -5.12153714569156   -1.93600688369707   -0.74830386167422
H        -3.01982142952294   -0.67866384294768   -0.89347251239337
H        -0.23667914251762   -1.05129141171840    1.56549784720583
H        -0.65790838021500   -1.35427778399316   -1.44239361676689
H         0.69099158101934   -3.09408106304921    1.32587410264092
H         2.26490995872052   -4.97042079853689    1.07594588450032
H         3.46797623060762   -5.28820840648598   -1.05599640491386
H         3.10401908558468   -3.76089922831632   -2.92212120191712
H         3.13767275207261   -1.65425334604328   -3.97554199281416
H         1.83235656741083   -2.72284899017614   -4.56790960694003
H         1.67468801868513   -0.95756225377232   -4.71823962655773
H         1.75492421429348    2.21514896515174   -2.47510660304281
H         2.28956135492371    4.61240480946617   -2.37229861523255
H         3.13741703832336    5.60484930060535   -0.28065734232226
H         3.49563117440001    4.18087806048306    1.70205995613724
H         2.97592651360151    1.76565716701670    1.59314569451627
H        -0.04036298039117    2.05699552380762   -0.50674202418444
H         0.20754124138134    0.13107318035045   -2.83841880948828
H        -2.82164608357516    2.88018819982673   -0.06505145166798
H        -2.59558624612113    5.31806968174400   -0.34017875889889
H        -0.88999425404674    6.55638885609193    0.94208142613548
H         0.56180064047941    5.35849431087268    2.53697752412698
H         0.30585668495840    2.92080381572242    2.84262394621455
