66
 energy: -122.494041749156 gnorm: 0.000958564311 xtb: 6.3.3 (4ae9cef)
C         2.21338202909264   -0.89525623613094   -1.52754253371164
C         3.20656165285198   -0.64353462836404   -2.42901736513885
C         3.92380679300258    0.57062228882673   -2.39235235178906
C         4.95534601521689    0.86244884983529   -3.30829745495474
C         5.63359417395791    2.04711177016527   -3.23995143047099
C         5.31213883740425    2.99288172216332   -2.25352695901493
C         4.31619235920433    2.74013311515266   -1.35240162379368
C         3.59701069108259    1.52746384937405   -1.39613185890282
C         2.56787039931126    1.23662594881541   -0.47776238063473
C         1.88682472254440    0.05145192739427   -0.53643163878800
C         0.76989040362023   -0.25408785018581    0.42886426327671
C        -0.60419439405762   -0.28075357576683   -0.27762377252631
C        -1.52638368982045    0.78247980515489    0.27013721432412
C        -1.46720166599436    2.04885974751926   -0.25198076572146
C        -2.27894463347611    3.08301812973338    0.25238909698998
C        -2.23073749016721    4.39435501332349   -0.26675379351904
C        -3.03256557342826    5.37526919575289    0.24477889607838
C        -3.91959670916722    5.09165654890918    1.29604495045054
C        -3.99046931711340    3.83147543758709    1.81967630664388
C        -3.17502988476913    2.79666388787471    1.31574918149521
C        -3.21364567964312    1.48709340422300    1.83547500451388
C        -2.40815937728073    0.50587791478951    1.33060398679451
N        -1.09047174579551   -1.63055416658319   -0.07115189045278
C        -2.12489879363805   -2.24494165895820   -0.67756123081632
C        -2.90897010815058   -1.53270925405983   -1.67739433146772
C        -4.00903377762204   -2.01279425526237   -2.36480988463640
Br       -4.76878529726207   -3.70667817290272   -2.24366482486537
C        -4.45910629596886   -0.96417525209764   -3.19850321209866
C        -3.61077683712272    0.07423930220907   -2.96105496546307
O        -2.68157173730434   -0.25432232573673   -2.05898980529850
O        -2.42036224237699   -3.40796027902050   -0.38170030669205
C        -0.25542164349773   -2.38604816111965    0.84645802359274
C        -0.96428519561788   -2.61731609982263    2.22617050443998
O        -1.97771113949060   -3.45190035722393    2.18537576170337
O        -0.58067212805445   -2.07072645579504    3.21986547263164
N         0.92250855993328   -1.58739199110249    0.99470378963467
C         1.92694839812814   -1.77163353927713    1.90186871958087
C         2.01955690775559   -3.07679117919443    2.56255415382853
C         2.83138142707101   -3.41604581203992    3.62171816615626
Br        4.07393135367379   -2.32841475493073    4.47296777771901
C         2.54487725883533   -4.76291330330198    3.94821305686879
C         1.58426988280172   -5.14909476255478    3.06743514842137
O         1.26212934639535   -4.15048680060484    2.23071257240365
O         2.73920224416689   -0.89494681126353    2.12164963263056
H         1.67344320515959   -1.83157753289283   -1.55984097747177
H         3.45931570669780   -1.37483357866147   -3.18354601814949
H         5.20168384049797    0.13045735692195   -4.06437441369215
H         6.42414760320496    2.26368301973551   -3.94341145941777
H         5.86157110357784    3.92185937126675   -2.21285442324181
H         4.06662348512662    3.46198787287602   -0.58844853424397
H         2.32955240863648    1.96100474669705    0.28715201041249
H         0.78031872314449    0.48405103095075    1.24111699024291
H        -0.45837432105537   -0.11015432635541   -1.35136740149232
H        -0.78492844500919    2.26675381552506   -1.06212190446080
H        -1.54436805826106    4.60699623116093   -1.07393484520163
H        -2.98933306664772    6.37783512103594   -0.15448622542383
H        -4.54425662870543    5.88060247727985    1.68799755726993
H        -4.66948556646345    3.60884170401567    2.62999214054936
H        -3.88888337642381    1.26800636989175    2.64935280082521
H        -2.44709244551031   -0.48679029113939    1.75340641618599
H        -5.29350723728176   -0.99764435326526   -3.86711883442768
H        -3.57075371844907    1.06804442169029   -3.36155181418112
H        -0.04000067786179   -3.37562500547135    0.40818804037438
H        -2.21603811829846   -3.71511279187053    1.25110218831799
H         2.99608265568027   -5.33823165090151    4.72919935396417
H         1.06585382900709   -6.07840318399371    2.93674105384506
