60
 energy: -100.830819679551 gnorm: 0.000936310451 xtb: 6.3.3 (4ae9cef)
C         1.56769956233753   -4.00567332772530    1.15833158846018
C         2.05634457807748   -4.75557148437051    2.21336534075492
C         2.18205648432360   -4.18766528484223    3.46899198486188
C         1.81152281837661   -2.86839262264605    3.66805239020751
C         1.31539398176915   -2.11882552128617    2.61749104741051
C         1.19915480605944   -2.68314645020836    1.35327756107263
C         0.62428002115812   -1.88567354641846    0.21304601769012
C        -0.88478099657031   -1.63990590051103    0.40135202685889
C        -1.70711177444929   -2.60191316321442   -0.41275412846708
C        -1.84603781925406   -2.42216352459810   -1.78280905825224
C        -2.56758922617261   -3.33079783964050   -2.53506296877135
C        -3.14546172963927   -4.43209711158188   -1.92668559412768
C        -3.00233564846647   -4.61896258036492   -0.56265269678749
C        -2.28683168034835   -3.70688516510280    0.19250717729092
N        -1.07568451761258   -0.26136726142562   -0.03255101591012
C        -2.32387996224665    0.28687690724497    0.08361547936449
C        -2.49819096614151    1.68242761783461   -0.35125730423857
C        -3.39282312661623    2.55489910853451    0.20096066697949
C        -3.42939114550254    3.80281343394465   -0.45080887302778
C        -2.59070878134742    3.87639548256233   -1.52053776594227
C        -2.36846683038017    5.01637230103738   -2.44709664165797
S        -1.71791667814749    2.39478342165511   -1.72925549294145
O        -3.26200301619434   -0.36165880435528    0.50186304737755
C         0.16779479024491    0.47132149812146   -0.04310259353145
C         0.21385237764037    1.45189306809749    1.14927694321856
O         0.19113231602317    2.72373049065200    0.75935275888711
O         0.23122761592206    1.10775587189024    2.29743382430458
N         1.17989091471994   -0.54306267804211    0.10962731809477
C         2.50873969725407   -0.29730184205524    0.23795513237235
C         2.87954554496763    1.14184111577961    0.20966669059374
C         3.47431513688114    1.83584842825481    1.21835757903234
C         3.75163101515825    3.17828833146191    0.87726000823979
C         3.39634338714186    3.49636652780191   -0.39544601924842
C         3.55537210428529    4.78971396543895   -1.11007632628112
S         2.69676073204037    2.13010378800878   -1.20424202069096
O         3.33064514024714   -1.17525619064476    0.38160268001358
H         1.47447662301298   -4.44791158172603    0.17699685805940
H         2.34423980706066   -5.78400561272305    2.05255931082520
H         2.57017368454531   -4.77103980541414    4.29097531867668
H         1.90808972827653   -2.42065420986493    4.64620325843180
H         1.02702861704521   -1.08995353371439    2.77752704781240
H         0.80632493257798   -2.41513612718598   -0.73260913452814
H        -1.15657066156012   -1.73087464239484    1.46170853498007
H        -1.39550398439508   -1.56258449903805   -2.25886786386539
H        -2.67769762095803   -3.17958803191085   -3.59889772924914
H        -3.70799173682648   -5.14180988243245   -2.51501818882659
H        -3.45295583963176   -5.47556633521167   -0.08378112138588
H        -2.17807201564978   -3.84947522651915    1.25744082787440
H        -3.99198603642941    2.29723247129927    1.05526738455803
H        -4.06355219548270    4.61470412291813   -0.14256594302142
H        -1.34225315882621    5.37583055862274   -2.37298226736174
H        -3.04496141909986    5.83168882399440   -2.20286506294458
H        -2.53976033972259    4.71221426331228   -3.47873336260142
H         0.29484199289141    1.03653810410883   -0.97814243382070
H         0.20253540347806    3.32382791420898    1.52342107492435
H         3.68784994313037    1.39870410558059    2.17680367509115
H         4.20575144989677    3.87834396723580    1.55562816127292
H         2.62512661927761    5.07638077821035   -1.59719097673532
H         4.32328124053043    4.70896146608686   -1.87938792231839
H         3.84709084133444    5.56905985328368   -0.41057620909209
