66
 energy: -115.338810163955 gnorm: 0.000976100337 xtb: 6.3.3 (4ae9cef)
C         3.99488965647851   -2.48701700149223    1.12926128158459
C         3.88575648267183   -1.94767428660516    2.37866872526571
C         2.87307003831082   -1.01637900858386    2.64721707730393
C         2.01601047693928   -0.61459882974858    1.66106170955111
C         2.12450340850722   -1.11715573523437    0.34485067114311
C         3.11954133818576   -2.10291837887249    0.09153249515847
C         3.20968460012521   -2.69509648362549   -1.18438536543967
C         2.34729028620022   -2.33391473257332   -2.17915817095663
C         1.40323032776506   -1.32616003238741   -1.95250107846140
C         1.29706837230711   -0.70162121289235   -0.73350963896888
C         0.26530244143578    0.39041932293220   -0.60007868516749
C        -0.98206025806349   -0.09859950437985    0.17598855038655
C        -2.10756227505721   -0.42941202376745   -0.77729365568618
C        -2.96324386001597    0.56497835918365   -1.17861821754399
C        -3.99765076889824    0.30846170504093   -2.08750294648991
C        -4.15747407214296   -0.94248012833689   -2.60867021223533
C        -3.28649814296830   -1.98823693359345   -2.24044658398979
C        -2.24120581450472   -1.74169844287672   -1.30665214589284
C        -1.39063987187393   -2.81927309340936   -0.97253375503004
C        -1.55829005808071   -4.05631041783454   -1.52978980076205
C        -2.58784777204209   -4.29250567224546   -2.45115065977902
C        -3.43411729108732   -3.27766155817391   -2.79382635213170
N        -1.29117066807076    0.99187206418162    1.08794980793207
C        -2.34704322435924    0.86008030513126    1.94051917716362
C        -2.64788842883971    1.97514672634375    2.84421966837134
C        -3.76357110390682    2.10687329498258    3.63445418471821
C        -3.63396953246742    3.34200417052719    4.30144829419222
C        -2.45297574567195    3.87313517719874    3.87675285500005
O        -1.84695383116778    3.05854380123778    3.00231618471137
O        -3.02241212786733   -0.15262183128147    1.94430409171346
C        -0.33007635775081    2.05114903400451    1.03949513509245
C        -0.94179423395393    3.40261756698043    0.54935835057623
O        -0.13655845755891    4.43462950821448    0.68566541747397
O        -2.04552763685175    3.47349983823484    0.09211182014159
N         0.69377725074068    1.58184730035354    0.11744056515895
C         1.90424113496836    2.17364226785278    0.14147419300732
C         2.94604110713099    1.70116392954733   -0.77151257136664
C         4.30283009398654    1.67835242797511   -0.56984123047555
C         4.86546749549280    1.18138812761738   -1.76331525562532
C         3.81732398813910    0.96142667002407   -2.60640966989557
O         2.65688615731063    1.27033017685989   -2.01881102113744
O         2.12702963840097    3.10689767893535    0.91768265741724
H         4.75200169117832   -3.22708906058369    0.91353675950132
H         4.56066952547355   -2.24441246772276    3.16740961779724
H         2.76824319580817   -0.61855129059386    3.64560825871127
H         1.23257284663841    0.08015474659750    1.91159689682973
H         3.96712961004041   -3.44620037773846   -1.35386715385690
H         2.39675076230665   -2.80252511154146   -3.15016899086750
H         0.75295273884464   -1.02565436271830   -2.76093904618755
H        -0.04701201244043    0.69398875509087   -1.60927788101364
H        -0.74812076175434   -0.98086668400833    0.78334454689251
H        -2.85530562891030    1.56467487745022   -0.78644985236928
H        -4.65982968692967    1.11358881158186   -2.36779568628090
H        -4.95008730250421   -1.15189425824149   -3.31276864641838
H        -0.58683926407123   -2.67845657736043   -0.26717199904038
H        -0.89298746456236   -4.86283192747838   -1.25785327932453
H        -2.70590756785817   -5.27680085260945   -2.87994222108194
H        -4.23522879138492   -3.44479987040036   -3.49987882037358
H        -4.56163620985727    1.39745141189133    3.70629719377468
H        -4.32179102780239    3.77562187150615    4.99761444835793
H        -1.94990629439498    4.78994268470969    4.11438870513942
H         0.13230217400707    2.23963163257705    2.02589720422584
H         0.77957961407637    4.16333446770011    0.96197412629695
H         4.81155399643701    1.96974039417717    0.32517439541817
H         5.90321536663053    1.01916547418042   -1.96766014955207
H         3.77426572913659    0.60566156810849   -3.61683532260155
