66
 energy: -104.955678365984 gnorm: 0.000861761445 xtb: 6.3.3 (4ae9cef)
O        -0.85304046643356    2.46272025771851    1.52612988680606
C        -1.32628565766992    1.49206781626822    0.97348926343259
C        -2.70915235461783    1.01145995915427    1.23631853707469
C        -3.13972468383272    0.94703877012186    2.55785893739619
C        -4.42254162438470    0.51769983901739    2.84082340239325
C        -5.28228282739977    0.16757489087880    1.81376228777771
C        -4.87506953391916    0.24973381271148    0.48759888632506
C        -5.80807011771524   -0.09545953500881   -0.63231320360889
C        -3.58333855277473    0.67491143250067    0.20969590482320
N        -0.60682440182140    0.77309507705013    0.04998756194605
C         0.80364836171067    1.05794056738992   -0.10047616964314
C         1.11398900964833    1.57256844459193   -1.51744284139913
O         1.61460136849771    0.61934955984638   -2.30208250087996
O         0.92619110897449    2.69928077112289   -1.88010102395284
N         1.44467769461860   -0.20440731227673    0.16838055030115
C         2.78449554483372   -0.43273192638345    0.19262389335333
C         3.61212442837172    0.81062012667494    0.24328317547375
C         4.45701185439138    1.11591183329828   -0.81409361710959
C         5.24138129148321    2.26077770933051   -0.78922980150856
C         6.12328910302000    2.61175405877460   -1.94825890996561
C         5.17916532179071    3.08727136334207    0.32624135449433
C         4.35749607133036    2.77488576974147    1.39443233157116
C         3.56778715120833    1.63991292502157    1.35717012086594
O         3.24481981816527   -1.55460803937222    0.19430317143699
C         0.50184543590465   -1.31036880310861    0.08679614769494
C         0.41804558660869   -2.03382427479886    1.40755164190117
C         0.22839818815724   -1.31476522757047    2.58197915572679
C         0.13574706510900   -1.97115161214094    3.79529942006777
C         0.23307760560081   -3.35162312412049    3.84728918374593
C         0.42621794402269   -4.07196923981961    2.68140029788285
C         0.51793347806318   -3.41583187963480    1.46638358752005
C        -0.84058316449652   -0.62130228049532   -0.27782924770463
C        -1.24106615994092   -0.84461091407766   -1.71835486447331
C        -1.44715045494785   -2.14697898519155   -2.15955183731896
C        -1.83091997127909   -2.39414941137878   -3.46458401331320
C        -2.01761332268367   -1.34127682375350   -4.34543168878969
C        -1.82752226920291   -0.04217577752661   -3.90941132006061
C        -1.44609545092539    0.20653592865667   -2.60105510904952
H        -2.46170906903739    1.22996218012723    3.34818066844862
H        -4.75568743623746    0.45665336448669    3.86608167842502
H        -6.28359977995052   -0.16765052851330    2.04279579812825
H        -6.58532933077872   -0.77667040876742   -0.29543251360592
H        -6.28884893738346    0.80869235335686   -1.00635581458532
H        -5.26690360726691   -0.55289922905975   -1.45811032923857
H        -3.26423284110011    0.75604853558443   -0.81848867751051
H         1.07137895989029    1.85705203774138    0.60726268357621
H         1.80055820282674    0.96658119202582   -3.18937742049322
H         4.49705269556740    0.44762312705648   -1.66224602957080
H         6.33058282932235    1.73649557316852   -2.55871448349221
H         7.06475857614389    3.03294548442277   -1.60291327497442
H         5.63320489965955    3.35823952052255   -2.57413750198268
H         5.78691736262891    3.97999627914078    0.35951126189369
H         4.32943637020567    3.42003015977890    2.25947211008417
H         2.93322955222507    1.38723028579004    2.19405684617421
H         0.82735852524908   -2.00366360490164   -0.69678929653456
H         0.15994674285246   -0.23671957637875    2.54983118955026
H        -0.00863596620605   -1.40335229714735    4.70263828237106
H         0.16516467099283   -3.86339694116389    4.79579983758854
H         0.51180310480618   -5.14789348340196    2.71823539733191
H         0.68227421072715   -3.97808730756464    0.55899500065625
H        -1.63723124429790   -1.01383084898740    0.36503663542984
H        -1.31376939439162   -2.96803097332845   -1.46996783871230
H        -1.98842278675717   -3.41019960115545   -3.79456962660426
H        -2.31610347813486   -1.53326010342568   -5.36521460012893
H        -1.98092345229758    0.78580121841967   -4.58580341702319
H        -1.31693279672764    1.22642984564403   -2.26836011642188
