72
 energy: -120.015155010290 gnorm: 0.000598614162 xtb: 6.3.3 (4ae9cef)
C         1.49686412957699   -2.14040459409608    0.81349742501010
C         1.90760597771918   -3.34226597355630    1.31227483301367
C         1.50090585082044   -4.55420040742155    0.71523281232641
C         1.91109352296665   -5.81066547182377    1.20605042736172
C         1.49713484335364   -6.96526608774077    0.60265047355385
C         0.65236522603479   -6.91589126929045   -0.51726570314392
C         0.23656252764808   -5.71326550530197   -1.01611988847757
C         0.64919165454781   -4.50430273734420   -0.41866821181199
C         0.24792996113646   -3.24862258410046   -0.91699442318807
C         0.66539847563707   -2.08865677905128   -0.32301331804223
C         0.19378320027016   -0.75696926853553   -0.83957573288207
C        -0.82416565765116   -0.11251090233439    0.11922234170894
C        -2.23749269799157   -0.37453328840036   -0.32135495012322
C        -2.98082757523065   -1.35193072684989    0.28302101379279
C        -4.29011941477307   -1.64051196698990   -0.15049418700433
C        -5.07592085316855   -2.64133789343811    0.45814281548516
C        -6.34664871528942   -2.89211263685309    0.02213566623846
C        -6.88993480273782   -2.15591040265943   -1.04260217468422
C        -6.15243348106158   -1.18162369321256   -1.65510387878006
C        -4.83861310079313   -0.89842941076337   -1.22884408287344
C        -4.04769756028755    0.09821908086464   -1.83787213537482
C        -2.77914818092024    0.34864438771029   -1.40158337121003
N        -0.48763465934812    1.30643279222977    0.08206801167805
C        -1.22534072710958    2.16719242398875    0.84204884709410
C        -0.87242420458309    3.60016650687590    0.81754698275637
C        -1.10500602609546    4.45203911794543    1.85667273502835
C        -0.78281790377447    5.80422979274889    1.57867517018409
C        -0.93064796327275    6.90534168751402    2.57232419010937
C        -0.33208950894264    5.95931908643023    0.30615493705605
S        -0.28014025206825    4.47592964233262   -0.56707130160006
O        -2.17189567902693    1.78204187775442    1.49788493080298
C         0.86064680701376    1.51831533126098   -0.39055501245943
C         1.78408693231123    1.89890397594627    0.80331035757415
O         2.27630567871404    3.13605868264376    0.81080964034424
O         2.00622884998098    1.12438517839920    1.68655714753995
N         1.25406073026276    0.23794446752362   -0.92365368399907
C         2.49163546526788   -0.05837974375746   -1.39509870290049
C         3.48383163660424    1.04397510803254   -1.28442984787315
C         4.63642847574154    1.00102879411817   -0.56503992622700
C         5.42414411927718    2.17749976606450   -0.67904045608151
C         6.70973322943069    2.37336427286245    0.04926493606198
C         4.85524478229303    3.08233455363432   -1.51607406769743
S         3.35911078957432    2.53291229896744   -2.17348858828275
O         2.78295408897278   -1.14206671119552   -1.84962420480832
H         1.81453761158501   -1.21910046137154    1.28010699706543
H         2.55365464970788   -3.38088423868510    2.17767777511313
H         2.56160074948948   -5.84352687724561    2.06867304206905
H         1.81729858292254   -7.92472412745357    0.98232019642715
H         0.33506893979775   -7.83833348726223   -0.98165102582280
H        -0.41287435392251   -5.67008038669237   -1.87889981412885
H        -0.39529911779920   -3.21604466679936   -1.78534479568799
H        -0.25281955651878   -0.88563346730054   -1.83561703615953
H        -0.67948453719974   -0.49381322431643    1.13882741970900
H        -2.56919874194438   -1.91468366175763    1.10857787811027
H        -4.65313628816197   -3.20413126926593    1.27791783827206
H        -6.94396362557686   -3.65848957727322    0.49422632321108
H        -7.89664239430024   -2.36676248399034   -1.37285169240621
H        -6.56621632435810   -0.61223302709400   -2.47544449139039
H        -4.46466414955052    0.66197486376322   -2.66035699733338
H        -2.18100675222010    1.11446389118444   -1.87534354413900
H        -1.49328797023617    4.10960911136359    2.79872139487151
H        -1.96129671556966    6.96008216273982    2.91913550706305
H        -0.65343761899552    7.86049148749923    2.13455295460269
H        -0.29562941156756    6.71482594279745    3.43634710736704
H        -0.02827558395833    6.85985749924811   -0.18971969024355
H         0.88291925370465    2.29138145494698   -1.17749919324953
H         2.02104107767546    3.66570874090713    0.03716299360129
H         4.90698098524618    0.15853300850596    0.04542571682248
H         6.53784361020802    2.31722121015866    1.12317720905314
H         7.41685820799776    1.59027581034870   -0.21992165952553
H         7.14489024229507    3.34017157514246   -0.18873701568876
H         5.22229324022925    4.04742042676790   -1.80344124280348
