62
 energy: -107.651263394201 gnorm: 0.000633041999 xtb: 6.3.3 (4ae9cef)
C        -2.57783634161745   -2.49918910246272   -1.13090548440675
C        -3.42004284911247   -3.17605662446900   -1.99692904619437
C        -2.91877337565570   -4.16045913823007   -2.82969358751026
C        -1.57170493460389   -4.47855376594307   -2.77985099030090
C        -0.72892705860396   -3.80136486469147   -1.91767020964497
C        -1.22138994495824   -2.79200221257502   -1.09811706926660
C        -0.28160385049974   -2.06745225384660   -0.16307373198435
C         1.00076705000965   -1.53816432974108   -0.86464205691219
C         2.25747911917962   -1.90204115898529   -0.11700937211899
C         3.20331766034999   -2.74045232548986   -0.68713336920348
C         4.34960947137472   -3.07701842521808    0.01084329651521
C         4.56027631825989   -2.57640482960014    1.28366970527622
C         3.62067367273502   -1.73681752929387    1.85766062592411
C         2.47451281883786   -1.40192580513516    1.16121246494740
N         0.80850107497360   -0.09045233129530   -0.86910685591728
C         1.72956810076314    0.77259557023315   -1.36667774742615
C         1.34853795051518    2.21342234933990   -1.17587333079154
C         1.06826346532408    3.02342963767123   -2.26893781249423
C         0.68660213631344    4.34309933397325   -2.08014849581925
C         0.57675705774344    4.86487808507664   -0.80520392274399
C         0.88034837664774    4.06034411911295    0.29368681041944
C         0.75669133191705    4.56097049526373    1.61055181847994
N         0.63958745130341    4.93604869294057    2.68729955487945
C         1.27683074824174    2.73712149296107    0.10767555440225
O         2.76001951520442    0.41330806168494   -1.88804420527152
C        -0.51605584553189    0.24248703046087   -0.41570038559247
C        -1.51983459534119    0.36766655385491   -1.58520789074181
O        -1.00289991846249   -0.01413521010269   -2.74365841386040
O        -2.63797111579230    0.77758770156963   -1.44652443818859
N        -0.87563606532110   -0.87096244663918    0.41869440809423
C        -1.17058008533428   -0.82527205481715    1.75635872000044
C        -1.43061453266128    0.52742183522013    2.33129259005027
C        -2.26032096943975    1.46784456356612    1.73333697069139
C        -2.39854402713267    2.72702880151764    2.31782467988143
C        -3.19134684828331    3.70767029048540    1.67511862545690
N        -3.81161807976720    4.51046880614366    1.14240034884627
C        -1.73578577006319    3.03884013580810    3.50532256257932
C        -0.94562272215262    2.08104338240569    4.11317185480681
C        -0.79291157637669    0.83381983659253    3.53289153252742
O        -1.18222349620841   -1.83271462202056    2.42911369241172
H        -2.98572562806217   -1.74788816343106   -0.47185122410907
H        -4.47180290222213   -2.93274823784651   -2.01400375809088
H        -3.57612009166806   -4.68705111262345   -3.50503899755287
H        -1.17619894218700   -5.25993213201162   -3.41145891178797
H         0.31652951090074   -4.06844700702407   -1.86959687367337
H        -0.02358982011313   -2.74048815583966    0.66464681839061
H         1.06373176727157   -1.89557701362316   -1.89799743357567
H         3.04778781346725   -3.12156919601784   -1.68565005827937
H         5.08238448152378   -3.72726977872269   -0.44307004422565
H         5.45640841038476   -2.83604681897739    1.82705054236228
H         3.78144502595487   -1.34130630585670    2.84967187663232
H         1.74326926504778   -0.74681161419968    1.61517324862404
H         1.14829886196065    2.61217155447727   -3.26366624527205
H         0.46612461923470    4.96586952153035   -2.93359038290739
H         0.26213808894165    5.88547212985391   -0.64884687466545
H         1.53044705784738    2.12816613301360    0.96507004585623
H        -0.54770224149737    1.18592481870334    0.13941282156243
H        -1.65832110873795    0.04959878932688   -3.45813196317151
H        -2.80596863546878    1.23884395499718    0.82943732172768
H        -1.84336446529836    4.02166165492263    3.93693174174066
H        -0.44021042987981    2.31136578256845    5.03801398439013
H        -0.17565995417007    0.08040345146235    3.99947796621873
