66
 energy: -122.491791253257 gnorm: 0.000553058850 xtb: 6.3.3 (4ae9cef)
C        -1.67354085914578   -0.58736508144453    1.87289779923786
C        -2.48527551011322   -0.13400330610716    2.87158063807743
C        -3.04727220885492    1.15895998571400    2.81672467083083
C        -3.91825060069356    1.64350121682412    3.81365207739216
C        -4.45050132822492    2.89945850938245    3.72338970654453
C        -4.13382273830628    3.72869481991846    2.63561177103063
C        -3.28811953904585    3.29044558862963    1.65554922195722
C        -2.72630866442385    1.99837846129556    1.71790939340396
C        -1.87541438835338    1.50684807220933    0.70766912372726
C        -1.37908916660172    0.23182849229601    0.76379743259213
C        -0.50667499520111   -0.30451669483688   -0.33866683274383
C         0.94697045018413   -0.50020215506138    0.14575225691910
C         1.85950317480413    0.56055863039980   -0.41626868853061
C         2.22630527953383    1.62626181943156    0.36111069856015
C         3.04850290938423    2.64893615544515   -0.15158620335418
C         3.44784548072513    3.75189158990749    0.63185039083493
C         4.25708318660163    4.72141947216844    0.10983802014794
C         4.70129960439941    4.63481680444112   -1.21918726449290
C         4.32849639625079    3.58013818173562   -2.00453710045402
C         3.49615983254189    2.56199637364186   -1.49547989121526
C         3.09698726517606    1.45571204216517   -2.27376354233989
C         2.29470187140004    0.48156203304345   -1.75309864759396
N         1.29296135886511   -1.84882223568499   -0.27706848147595
C         2.55280113607431   -2.31445779684942   -0.07752106862434
C         2.80108004478235   -3.71460898300768   -0.51354571463758
C         2.32821974041997   -4.87411823609364    0.03304784256654
Br        1.13653679206552   -5.16305005059112    1.43754551979411
O         2.85265476210356   -5.95610834302873   -0.55878844408552
C         3.68875839274396   -5.49826989852141   -1.51022899397374
C         3.70915312494853   -4.13995513344011   -1.52341743823644
O         3.41287060523170   -1.64250720258024    0.44568740048404
C         0.20499289363997   -2.54082108618280   -0.90407153230733
C         0.51216154826810   -2.91470690822982   -2.39127034976437
O        -0.39311523833989   -3.68314226328627   -2.95277780629133
O         1.51208069624156   -2.54838100266109   -2.93793599971364
N        -0.92011744298742   -1.62618744756619   -0.79253331806546
C        -2.16928273427468   -2.09711109835406   -0.95341483839265
C        -3.29806459165082   -1.17560933364139   -0.70933570482827
C        -3.64278279068422   -0.03297715814703   -1.37825005524809
Br       -2.83528477980739    0.84828422006761   -2.80361641785018
O        -4.77901661354348    0.48994544883694   -0.90434475257712
C        -5.19407177457586   -0.31964771237306    0.08601463691223
C        -4.34037676249705   -1.36415349323151    0.24268582067378
O        -2.36883964777017   -3.26147829718167   -1.29372414654817
H        -1.25825838630110   -1.58407717874224    1.91914304295215
H        -2.71315989322449   -0.76510426603535    3.71786996817228
H        -4.15782872103605    1.00211194921188    4.64937375913889
H        -5.11867601533247    3.26407412390835    4.48928783058029
H        -4.56486179442675    4.71723798888267    2.58092041169453
H        -3.04052477803940    3.92311482577477    0.81561992744344
H        -1.63216130910524    2.14990063294938   -0.12669498316158
H        -0.50844557560778    0.38595247585624   -1.19232622021894
H         0.99316840537002   -0.45972050826774    1.24277533674787
H         1.89417597106412    1.69150071138189    1.38807964431135
H         3.10457699517260    3.81219132173789    1.65487958711512
H         4.56303077770374    5.56155163551922    0.71622433862257
H         5.34188344778333    5.40968923155504   -1.61430224438014
H         4.66848630725864    3.50877705768114   -3.02784725345563
H         3.43968882160455    1.38730760479957   -3.29592606184354
H         2.01137633921948   -0.36655627013945   -2.35778248614883
H         4.20068714424179   -6.23263624670723   -2.09828794086584
H         4.26801392326932   -3.49484929879315   -2.16695745628003
H        -0.05662354528535   -3.47742664011445   -0.37899273938421
H        -1.20754474149555   -3.79231347891092   -2.38615769061784
H        -6.09785447907278   -0.04763869381169    0.59181707743269
H        -4.41204906504073   -2.17051997717020    0.94139996379675
