78
 energy: -153.371130776261 gnorm: 0.000249402349 xtb: 6.3.3 (4ae9cef)
C         0.20358715338274    3.46728921499118    4.16616382811407
C        -0.96368954819337    2.90812299944876    4.60077504625000
C        -1.38920982822511    1.68390138963944    4.06727837773417
C        -0.65387262169346    1.04901933603409    3.10573069336250
C         0.54385839923513    1.60999305443766    2.61015681268012
C         0.98162382945036    2.84284417704904    3.16861166468490
C         2.17803910409707    3.43187344698777    2.71044708414688
C         2.90754731112739    2.84003829418489    1.72071731323861
C         2.46435171772148    1.64353936046946    1.14248142707932
C         1.32063268418475    1.02316874852489    1.57426189280219
C         0.82365479692538   -0.21984136768054    0.87253199326526
C        -0.19498419865648    0.17103910503543   -0.22352747075629
C        -1.61652368907119   -0.12812064582500    0.18083082441568
C        -1.98178403512048   -1.44644631569057    0.31343044572986
C        -3.29228361972300   -1.80771848754014    0.64643037610178
C        -4.23863810681106   -0.84133323955057    0.83308211624382
C        -3.90060054176057    0.52371311811021    0.73529363505365
C        -2.56326759270637    0.90202622768228    0.42958745732080
C        -2.25740976143550    2.28022901355930    0.40118122349485
C        -3.22064006901406    3.22472661923007    0.61925494469325
C        -4.54444909997437    2.84804350120772    0.88477212757243
C        -4.87233679457203    1.52425215172573    0.94863200455870
N         0.22150113408145   -0.61274119142721   -1.37270033304259
C        -0.47991046043344   -0.89258065344076   -2.49019977838043
C        -1.77211470553485   -0.16529812986416   -2.62512020414281
C        -1.95705462169610    1.16846864861087   -2.87938453025848
C        -0.98667276291542    2.26445374065795   -3.15090421074472
F        -1.04631394884985    2.71343336061184   -4.41305553380630
F        -1.17818993997030    3.33903506026417   -2.36567969075768
F         0.27832329425541    1.86841505488793   -2.94192782909688
O        -3.27342148760824    1.46066667232807   -2.95380961622006
C        -3.94991864927287    0.31604838384445   -2.74784904490581
C        -5.43171608119563    0.36403903605282   -2.73798542720200
C        -3.07791862740066   -0.71685661924271   -2.55879827986379
O        -0.06803299858874   -1.67695915674903   -3.32077628535791
C         1.55265230262525   -1.15386425612525   -1.23141300298926
C         1.55966413481991   -2.65444367501994   -1.60130985425836
O         0.56826027815948   -3.29825087623864   -0.99800317591907
O         2.40216928768410   -3.17578039365708   -2.27226624526596
N         1.87500935564048   -0.92734955253861    0.15555823091467
C         2.86987827712291   -1.52650985763221    0.86265966019177
C         3.93035649357678   -2.15552576406171    0.03301881555094
C         4.35295851650942   -3.45801115279310    0.07573786316241
C         3.79626182996232   -4.62233234496776    0.81843728835207
F         4.13243641192071   -5.78937747562814    0.25855797925196
F         4.18980367136136   -4.68683985406107    2.09805858064173
F         2.44798681213224   -4.58540945491383    0.84130790607936
O         5.37783706729749   -3.65540768112374   -0.77283045373178
C         5.64357383777558   -2.47821067593733   -1.36255818504747
C         6.73662355287344   -2.41942080258423   -2.36315602058861
C         4.78646975514244   -1.51920724633889   -0.90344178966316
O         2.91325607137401   -1.49506658040608    2.07182018540953
H         0.55182785915395    4.40381613346189    4.57777181175609
H        -1.55812210353942    3.39576847851273    5.35904126285429
H        -2.30641640509126    1.23845676660197    4.42334894396084
H        -1.00571278205805    0.10339274343507    2.72667092403959
H         2.50085002072809    4.36275232001492    3.15348919896050
H         3.82233599565299    3.29040670915859    1.36584083365348
H         3.04360753979945    1.20700924361097    0.34265035970271
H         0.38561509630546   -0.91147813258900    1.60080135964452
H        -0.06345892752460    1.23281273921049   -0.45895789875141
H        -1.25114260710201   -2.22210800038791    0.13770986474825
H        -3.54456869417759   -2.85287455171274    0.74232689902123
H        -5.25859703107102   -1.10595836564809    1.07112756087684
H        -1.24669495510469    2.61079290585330    0.22379102995071
H        -2.96016209578357    4.27144292912542    0.58876086823524
H        -5.29334702592656    3.60850475210123    1.04813512435653
H        -5.88410059286508    1.21714054584370    1.17336976818289
H        -5.77419092309794    1.00721198957631   -1.92830787096589
H        -5.82956497914454   -0.63533105399486   -2.59652220094567
H        -5.80427248437666    0.77426677043325   -3.67480264827065
H        -3.31620440359542   -1.74393356574816   -2.38126459385120
H         2.25504985560761   -0.64499074289037   -1.91363200154938
H         0.59471356607501   -4.24642543299395   -1.20586122736499
H         6.96840005077031   -1.38576652534288   -2.59885214417657
H         6.43100323098105   -2.93187995580846   -3.27449726667275
H         7.62499285204050   -2.91601918250743   -1.97889951635045
H         4.77080365336132   -0.48648078187586   -1.18334927711326
