72
 energy: -125.895673687326 gnorm: 0.000600895765 xtb: 6.3.3 (4ae9cef)
C        -2.39279583061101   -2.72889443183712   -0.62990739822556
C        -3.63214426437158   -2.89535715413311   -1.17469927413169
C        -4.01782788920465   -2.17585482630640   -2.32506692982038
C        -5.29079877086835   -2.31802329947667   -2.91370402441555
C        -5.62790228734249   -1.59958501525220   -4.02684563766720
C        -4.70757033065264   -0.70929698580710   -4.60208657339794
C        -3.46479537465035   -0.55207268826375   -4.05566161652777
C        -3.08821155515259   -1.27651930480344   -2.90615753049287
C        -1.81696386577969   -1.11981768870365   -2.31687811684373
C        -1.46635458650445   -1.83009553275012   -1.20042031999442
C        -0.15162968345274   -1.66105924319944   -0.47096925384017
C         0.92074606396671   -0.86432696920056   -1.20570832896863
C         2.34283855799147   -1.09950613765586   -0.74378413664221
C         2.66276464413376   -1.62494945294908    0.48094809012407
C         4.00695041565314   -1.76954438902976    0.88363421471961
C         4.34952968112785   -2.31591798450917    2.13824511063910
C         5.65927032750845   -2.44664332649316    2.50615467180471
C         6.68412491136023   -2.03752066654953    1.63805261956242
C         6.38321160006961   -1.50302949427292    0.41640022047089
C         5.04208136787683   -1.35378471760929    0.00752338355675
C         4.68717087446232   -0.80608355686576   -1.24331134407657
C         3.37772976768757   -0.68207686902775   -1.60762860665543
N         0.54039920898278    0.51341969921731   -0.87634026987958
C         0.63208355898867    1.51839218696074   -1.78265518055960
C         0.18955620803349    2.85590999350931   -1.27210369182774
C        -0.91549835449831    3.50016567183211   -1.82436368401305
Cl       -1.85352282401287    2.70306856391765   -3.01776116715555
C        -1.28460425942256    4.76245169522374   -1.38269343105835
C        -0.53834090258090    5.39177231193193   -0.40382354911003
C         0.57478980091218    4.76879184203553    0.13849086033306
C         0.93656025508039    3.50639631613484   -0.29586700142159
O         1.08483039193249    1.34839720754741   -2.89254376146060
C        -0.11357806830863    0.56589235041105    0.41011799274912
C        -1.44558699774590    1.36474320614698    0.34006955956204
O        -1.58129636976649    2.33875904166303    1.25126922565824
O        -2.30766700071119    1.11278735370126   -0.44210317414964
N        -0.36254195645049   -0.82455617285248    0.71675622326366
C        -0.53504395374480   -1.35170378164837    1.95166640264754
C        -0.70381326157037   -0.33285818075954    3.04164017837942
C         0.37817909712033    0.08680230714621    3.80458017776874
C         0.19260051699996    0.99306817763525    4.83480124077184
C        -1.07715300217568    1.47458818348506    5.11124070783651
C        -2.16528794194695    1.05563495473620    4.36502352684509
C        -1.97680324537398    0.15064998614296    3.33137260724239
Cl       -3.31348877935548   -0.38307147169510    2.37234546256146
O        -0.54790070208196   -2.54445909335395    2.16096390901295
H        -2.10619017897955   -3.27620875220557    0.25638195321584
H        -4.33769649973345   -3.58156079408558   -0.72774295962738
H        -5.99604651074105   -3.00482051593161   -2.46692360000392
H        -6.60593304503168   -1.71117535558152   -4.47242053259308
H        -4.99202512710918   -0.14899537089522   -5.48095616646035
H        -2.75317611285852    0.13235946712069   -4.49457758949783
H        -1.14403405227120   -0.41359771869606   -2.77814137856431
H         0.20476779319204   -2.63952342849424   -0.13605855479146
H         0.87156412683179   -0.98714809465795   -2.29015866340145
H         1.90261158358974   -1.96007401719569    1.17044894425404
H         3.55634413083863   -2.63537083855531    2.79957851896289
H         5.91614424352766   -2.86805061693791    3.46688212404161
H         7.71351039529780   -2.15150276216737    1.94465504586512
H         7.16855861420633   -1.18855300721397   -0.25586003588989
H         5.47274493373294   -0.48653595424917   -1.91275205976061
H         3.11235587570278   -0.25325146829933   -2.56221665957172
H        -2.15056661983705    5.24097705232821   -1.81088742813056
H        -0.82469954548622    6.37535891594338   -0.06479258338473
H         1.16233440752171    5.26749909211104    0.89420645369122
H         1.81470362640675    3.01988416953199    0.10638626034248
H         0.54825154387407    1.00756974056145    1.18025836127170
H        -0.81762487637817    2.45303198980699    1.83247797820855
H         1.36211069476869   -0.30542107627092    3.59104615911408
H         1.03627426227520    1.31471319464439    5.42553132660350
H        -1.22395140196768    2.17556206256496    5.91833803495384
H        -3.15662245293649    1.41975147242845    4.57908866797899
