70
 energy: -123.419101002646 gnorm: 0.000289752097 xtb: 6.3.3 (4ae9cef)
C        -3.14455134628729   -1.58906683781826    0.40521175450257
O        -3.17304414453873   -0.54928025006319    1.28312985724523
C        -4.41681253254339   -0.10741290439873    1.76327097151093
C        -4.23829341169998   -2.37498425127003    0.07588704414767
C        -4.09356939320625   -3.42550105711988   -0.81612405229311
C        -2.86490351984160   -3.69680005335172   -1.38141079210214
C        -1.76939433839854   -2.90701825023781   -1.06484244484081
C        -1.89401479362086   -1.85166741282300   -0.18268224074365
C        -0.75360817383186   -0.97188641754272    0.24032578298313
C         0.65876211084966   -1.31332340869226   -0.26572751901479
C         1.33664855063555   -2.40384547103946    0.51622489341901
C         1.59940596547484   -2.23915934957507    1.86599848015671
C         2.24513780961556   -3.22505944679630    2.59146715685062
C         2.63574393332521   -4.38872380308808    1.95810637244147
C         2.38363823604462   -4.57200619550345    0.60957763819842
C         1.73557148631479   -3.58595122638210   -0.12392494379831
O         1.44122161175362   -3.69180256966074   -1.45101202673629
C         1.93813940818524   -4.79544211488921   -2.16790587856065
N         1.34413501159425   -0.02564825630886   -0.11702726879184
C         2.67847618573071    0.10220805970815   -0.29315033932389
C         3.22344227320592    1.47959175395130   -0.08790745696970
C         4.12103358396359    1.75941810086299    0.89272718103277
S         4.64254777504584    3.39210584290157    0.86249683783560
C         3.66526146777472    3.71906068848270   -0.51650065552420
C         2.96744426191165    2.61986389771310   -0.91541178596366
O         2.10414411894335    2.52210051706016   -1.96156536566883
C         1.98182374051261    3.65366716242421   -2.79160501131158
O         3.40025678553546   -0.83623489719756   -0.55581053610098
C         0.39138438844277    1.04487119746917    0.13633099868330
C         0.53706872381280    1.49951358018417    1.59811512400351
O         1.12212756396829    2.69933941352079    1.66818712742511
O         0.25366683542546    0.85538387111598    2.56755115569591
N        -0.87863945742315    0.43649676286672   -0.14513466129520
C        -1.79054807216414    0.96831727039546   -0.99614669349978
C        -1.66091911821090    2.44874368115563   -1.15572714372964
C        -1.64699610130105    3.08549412544947   -2.35552406288347
S        -1.57747824602484    4.79091830860108   -2.19258971851538
C        -1.59943066694446    4.66839965650341   -0.47228343212854
C        -1.64374834538253    3.37162838508604   -0.05896015837306
O        -1.68757939940525    2.90027257628586    1.21199485193318
C        -1.79152670523522    3.85465383773747    2.24151820421091
O        -2.66277239326720    0.34799538453463   -1.56305324003860
H        -4.20123543566651    0.77946045202029    2.35783790836287
H        -4.89784733891705   -0.85946331643798    2.39847280416293
H        -5.08750127891788    0.16058828524603    0.94102085103162
H        -5.20791773943703   -2.17853715537400    0.50563676704363
H        -4.95356926835749   -4.03003568364888   -1.06460081748584
H        -2.75317585894031   -4.51641146901233   -2.07489465892080
H        -0.81499821159252   -3.12688718927873   -1.51321679437775
H        -0.73862435008353   -0.97119093854948    1.33989142822699
H         0.64884235075088   -1.57388444519919   -1.32902659881937
H         1.30395085754011   -1.32246839819429    2.35497818306143
H         2.44582219355587   -3.08088276229782    3.64206921277291
H         3.14559273570442   -5.16436741523322    2.51037705402885
H         2.70354750130043   -5.48719354372766    0.13715936703150
H         1.49300525759532   -5.73415877016919   -1.82114980730435
H         1.65079882069677   -4.62451393122701   -3.20468453267881
H         3.02805692416735   -4.85746879582170   -2.10084908387876
H         4.49731985211531    1.08716304924148    1.63729058503001
H         3.67716971890299    4.70198112155060   -0.94017439585632
H         1.56919235900189    4.50631170709278   -2.24258921850358
H         1.29609486559642    3.36800248289830   -3.58673566124368
H         2.94760146728211    3.93338496557034   -3.22218270329718
H         0.57171258752410    1.90444717803697   -0.51561645203863
H         1.26918708147961    2.95237369676077    2.59501020177560
H        -1.66697941010837    2.63627993689806   -3.32773689161743
H        -1.58702013623272    5.56632017042729    0.11061839798970
H        -0.92929556115040    4.53018854616459    2.24560538711210
H        -2.70777525054639    4.44478169381211    2.14138076590873
H        -1.82120440200205    3.28695162821367    3.17001069842674
