74
 energy: -144.783731007239 gnorm: 0.000340819379 xtb: 6.3.3 (4ae9cef)
C         1.05638156696478    3.19061907153231   -1.52350840423123
C         0.26747677688296    4.25058521600913   -0.80793472688504
F         0.30728561000746    5.43930826850605   -1.41978854861483
F         0.66785630936604    4.47162337232158    0.45560124019614
F        -1.04939441656112    3.93714972889918   -0.71321874838957
C         1.75572588310017    3.54051799645191   -2.67178072935546
C         2.47282054639348    2.58647625370272   -3.36764081381462
C         2.48583420297977    1.27534363132051   -2.92402973344114
C         1.78864278154591    0.92528060599762   -1.78460428940616
C         1.07546170458008    1.87523158730408   -1.06167014260991
C         0.34226305588432    1.42517755908668    0.17595645408824
C        -0.83648185869887    0.47885611842904   -0.15471681204803
C        -2.16549699801543    1.18613442596676   -0.06473659221602
C        -2.92532076356583    1.54423620220948   -1.17958476834665
C        -2.43286145520772    1.31701223807676   -2.58240580525848
F        -2.14488458534681    0.02954606566986   -2.86738139318981
F        -3.31324208842580    1.69720124428256   -3.51320743673153
F        -1.29773263842454    1.99444597436248   -2.84654180308542
C        -4.14827499568303    2.18512792386629   -1.01598221974055
C        -4.61682072545003    2.48741256529034    0.24767741581556
C        -3.85553746998940    2.16599228724574    1.35753291565672
C        -2.64516899935961    1.52109268705036    1.19668682530899
N        -0.71162787991489   -0.57511538419412    0.84008760983296
C        -1.40497767851487   -1.74204225855631    0.86904063315708
C        -2.67417340829936   -1.76134772200986    0.08344954664902
C        -3.84791339481009   -1.32971678339203    0.68326625449917
C        -5.02944612279588   -1.36118488260113   -0.03894242709049
C        -5.04269347228105   -1.82993661031306   -1.33491752658760
C        -3.86916559376738   -2.29682893132880   -1.93200255879066
O        -3.99390563968715   -2.75560388666067   -3.19925424330355
C        -2.84294618295363   -3.20943107444362   -3.87389630667609
C        -2.67889887069883   -2.26116795680302   -1.21105807758941
O        -1.00951413742355   -2.67473612097484    1.54013441686562
C         0.50022612951663   -0.47314188673220    1.63214745027006
C         1.27033766750500   -1.81303009062693    1.61213874239434
O         1.53937491647348   -2.18216547641897    0.35730954274746
O         1.64365286143989   -2.39925658461126    2.58413862114891
N         1.21416108334612    0.61906385843352    1.02358707624190
C         2.48197454061282    1.03497718244189    1.30510607094773
C         3.23862695271910    0.12424862853746    2.21389283206627
C         4.14509586875610   -0.76218074031928    1.66163241212927
C         4.85482575475128   -1.64187473703420    2.47877154488212
O         5.68891131781670   -2.50047168439157    1.83293566595994
C         6.43506871652704   -3.41629037847600    2.59966509357668
C         4.66431060327051   -1.59395585463296    3.85508891382286
C         3.77797386026747   -0.67950693272851    4.39801234471554
C         3.05896874221648    0.17933344950754    3.59094004603512
O         2.94309081340450    2.04443078382180    0.82104600751081
H         1.73735394144233    4.56247900174584   -3.01631068469529
H         3.01904691861405    2.86811226035222   -4.25420816894921
H         3.04181534474559    0.52483217336524   -3.46534027542822
H         1.80746024478871   -0.09564261988264   -1.43062656529586
H        -0.02123866701747    2.28026545766163    0.75683011260858
H        -0.68683824345397    0.04645766391717   -1.14923630088668
H        -4.72900214914496    2.45363064729246   -1.88411455195045
H        -5.56665363979689    2.98524880659045    0.36157406168589
H        -4.20362972044941    2.41734016079547    2.34762415253874
H        -2.05486200181306    1.26089837424401    2.06241858732597
H        -3.83636442415776   -0.97889324170460    1.70301840082653
H        -5.94550802098930   -1.01779681123368    0.41680406793050
H        -5.95331586049459   -1.85869323130711   -1.91154650330230
H        -2.39521238697478   -4.06986626492878   -3.36700107477078
H        -2.10114187733086   -2.41204895421945   -3.97256998308787
H        -3.18424517249051   -3.51166909609559   -4.86254854631052
H        -1.75406454989453   -2.61104295684015   -1.64087030829056
H         0.25076256661532   -0.27250007594666    2.69012264089321
H         2.00921542751350   -3.03142045601585    0.35853555680940
H         4.30441015377303   -0.79667671341543    0.59481597995818
H         7.11081709760127   -2.90378651806419    3.29132186162338
H         7.02173350212286   -3.98959511378100    1.88340033946344
H         5.78325533477542   -4.09378962520676    3.15999002381668
H         5.19530160221215   -2.26326918470374    4.51256878428529
H         3.64293213003445   -0.64892700592941    5.46847580739506
H         2.36810355933183    0.88891037422279    4.01982601670856
