66
 energy: -130.317089951135 gnorm: 0.000991952667 xtb: 6.3.3 (4ae9cef)
C        -2.67705135963759   -1.07897411011493    1.10896366324929
C        -2.22244767814556   -1.35246410504168    2.51630776423563
F        -3.16433463460291   -1.93241181466590    3.26758826244753
F        -1.85167913196038   -0.24833063854628    3.19704805654352
F        -1.15455324172010   -2.17525655281638    2.56042938892610
C        -3.94555533783340   -1.51049094924048    0.73808013982420
C        -4.38915607990238   -1.34283128791381   -0.55880141887193
C        -3.55767200149765   -0.75898088340562   -1.49805468370858
C        -2.29970656263400   -0.32451151368556   -1.13082074606629
C        -1.84322000585712   -0.45947369391129    0.17644876125797
C        -0.45635763152196    0.02834909029758    0.50351618007145
C         0.62151945924124   -0.83897170426647   -0.19895546270349
C         1.11861886171512   -1.97019575913780    0.66196731570477
C         0.83969233138607   -3.31204847581772    0.40191075131547
C        -0.01474964762444   -3.72143351308932   -0.76483771784156
F         0.45185074455394   -3.32573338838363   -1.95926673781538
F        -1.26883935841405   -3.21110836439120   -0.68124366184736
F        -0.17857144675020   -5.04659802126702   -0.85672306794539
C         1.33050943927190   -4.30635284489039    1.23948757536387
C         2.09892356651008   -3.97713495621492    2.33897881490218
C         2.37429672141044   -2.64878243762290    2.61056078395148
C         1.88432175185737   -1.66045800048016    1.78045958539350
N         1.69030530241589    0.12007602332169   -0.45021014901787
C         2.90357924657270   -0.30314956271994   -0.92033040240082
C         3.90006644236856    0.77786291843808   -1.16095429229946
C         4.30746297988480    1.61277281583207   -0.12695609929766
C         5.26501899134391    2.58265812328716   -0.35848024279316
C         5.81461066384097    2.72838452791345   -1.62106726975328
C         5.42380803363682    1.88648309643573   -2.64785147385282
C         4.47785731865200    0.90450810938226   -2.41740786483200
O         3.14227100917794   -1.48087301343974   -1.08035479365776
C         1.16406198094869    1.45808056069170   -0.55046873619338
C         1.14353030532703    1.95905379572167   -2.01221408960360
O         0.30731446590478    1.22806675196014   -2.76141564199798
O         1.89759613705477    2.77567559846221   -2.45436806698991
N        -0.17948598506077    1.35945675754283   -0.01658090565860
C        -1.03367687780754    2.35446443732509   -0.37286371619553
C        -2.38917808971465    2.34817473503759    0.22909434712566
C        -3.49359166570702    2.54886505177564   -0.59202925997615
C        -4.76513147347295    2.55204678667586   -0.05130431251911
C        -4.93891352827222    2.38566896440394    1.31316939888546
C        -3.83765822465386    2.23152498933409    2.13846407459320
C        -2.56344342694913    2.21231362352299    1.60079959841266
O        -0.64863450846643    3.22522569627496   -1.13643199488986
H        -4.58040475206661   -1.98680263972592    1.46846194457459
H        -5.37462720095419   -1.68256279345557   -0.83531308862190
H        -3.88712254050032   -0.64559739245136   -2.51913707947940
H        -1.65518015515666    0.13340090100602   -1.86625088767049
H        -0.26554038055335    0.02075808600482    1.58222489038146
H         0.23006774190319   -1.20457855409287   -1.15443091753980
H         1.11010926804077   -5.34017006078447    1.02454087157716
H         2.47961291930127   -4.75673118841314    2.97975196069355
H         2.97218163430561   -2.38199477802056    3.46856569621684
H         2.10868564300580   -0.62511165369723    1.98968511711054
H         3.89261277049416    1.48722675169066    0.86357372636066
H         5.58095941375163    3.22807373508424    0.44774360727237
H         6.55315023218876    3.49502116706390   -1.80166442386903
H         5.85873533665690    1.99291160160386   -3.63010140060378
H         4.17321150470157    0.23543920612169   -3.20811978122716
H         1.76131736412207    2.18308253813299    0.02215976504145
H         0.32873628431679    1.54388035851997   -3.67862561175540
H        -3.34197712169448    2.69089937978476   -1.65100524267963
H        -5.62162334930616    2.69464128343380   -0.69238146327281
H        -5.93279565431123    2.38940744328088    1.73500297824806
H        -3.96798044932020    2.12515333638714    3.20469377743720
H        -1.70573336382724    2.11050741004210    2.24734790833519
