24
 energy: -35.621994335379 gnorm: 0.000369165142 xtb: 6.3.3 (4ae9cef)
C        -4.00999931385580    0.28372957237929    1.08649484884746
O        -3.18990659488823   -0.40892752588735    0.18182712584336
C        -1.87600687602688   -0.05627827354948    0.10196955996421
C        -1.25963105945514    0.92609198486431    0.85892431776985
C         0.08944363760637    1.20891952893518    0.69501250152554
C         0.85150784658928    0.52157102305630   -0.23029229156931
C         2.32368051687122    0.79025540964017   -0.39983652428700
C         3.11798183851556   -0.27839530275986    0.29068354705266
C         3.99460712642564   -1.06319787444474   -0.30584179717457
C         0.23785556973434   -0.47147433926824   -0.98787869388619
C        -1.10330106328038   -0.76676589783293   -0.83732065628213
O        -1.72104229083983   -1.73191141026641   -1.57279140487097
H        -4.04853355967355    1.35471494246168    0.85879113124883
H        -5.00439338592070   -0.14414036184364    0.96875259126146
H        -3.67826443284387    0.14550484741301    2.12151075815732
H        -1.82317350019940    1.48550109151234    1.58848857435270
H         0.54073854178059    1.98150609469568    1.29995064398493
H         2.58398287558743    0.81512700804021   -1.45987980898939
H         2.56799679259098    1.75989130822113    0.04145092470708
H         2.91030983152692   -0.38927903536074    1.34693953499102
H         4.53822185952639   -1.82330491676060    0.22908272774209
H         4.21510559314056   -0.97272705616524   -1.35739497320337
H         0.82186341977649   -1.02689854491709   -1.71084561923966
H        -1.07904237268812   -2.13951327216280   -2.16670401794599
