92
 energy: -147.584978693935 gnorm: 0.000302876477 xtb: 6.3.3 (4ae9cef)
C         2.23132446093126    4.25782991057611   -0.15317754911420
C         3.51594521265345    4.68994001998855   -0.31199224103014
C         4.60538286469807    3.89619925305209    0.10481535404279
C         5.94480384649928    4.30352182252302   -0.05988990032552
C         6.97290587885847    3.51091281676560    0.36879768892441
C         6.70830328196243    2.27676289545639    0.98275404742297
C         5.42010052242376    1.85410456469919    1.15642002018772
C         4.33795681973955    2.64806027519094    0.72311257434809
C         2.99974604343808    2.23364679291487    0.88077514483327
C         1.96070389819315    3.00392818312289    0.43166104035310
C         0.52677688515192    2.55931087960925    0.56650350293488
C        -0.27004485138727    2.67666262193825   -0.77464250760190
C        -1.49119045049097    3.54386699013514   -0.62778017950601
C        -2.46106378786356    3.22731283874793    0.28883884670388
C        -3.60165747416098    4.03580328543048    0.45017128739418
C        -4.61302301400797    3.72572093840219    1.38352086312826
C        -5.70945336551435    4.52994359457517    1.51683460514655
C        -5.84603641633754    5.68044433646380    0.72365226000270
C        -4.88256101206587    6.00829880137765   -0.18840986492261
C        -3.73850782871311    5.19988566296832   -0.35011643058445
C        -2.72538474879782    5.50512689597712   -1.28163265786425
C        -1.63175511419434    4.69917438613748   -1.41672547073390
N        -0.61635829267389    1.28767745907086   -1.07887515976004
C        -1.72154037746303    0.91760114367532   -1.78172664418885
C        -2.11792054561166   -0.51800268093187   -1.61666548515406
C        -3.38376369762576   -0.75073685538623   -1.08973397328680
C        -3.80551784388614   -2.04808573900817   -0.86358444634762
C        -2.97386218248279   -3.11186903812230   -1.15750079587277
C        -1.70743440414459   -2.89990969342728   -1.70035231585604
C        -0.82283005765545   -4.03506027150892   -2.00335144531579
C        -0.81996401684805   -5.16630530470739   -1.18911196700728
C         0.00676442113984   -6.23713512642977   -1.46849268647914
C         0.85124826119010   -6.19651433739268   -2.56466383848979
C         0.85866957285238   -5.07868928922456   -3.38154120438149
C         0.02915842907557   -4.00775192380938   -3.10545398594267
C        -1.29488707118488   -1.58951538644597   -1.93523135913251
O        -2.38087630545789    1.70617276113250   -2.42224425725584
C         0.24748405569443    0.43303008673588   -0.31153539597943
C         1.60257419463889    0.28023148683898   -1.02812356555676
O         2.39564066512127   -0.58135033701447   -0.39062424489694
O         1.90616364678693    0.83280478264614   -2.04492705967202
N         0.41547674201054    1.15146697283382    0.92736678274746
C        -0.19405891776203    0.78491457759714    2.10353535041496
C        -0.61360592726731   -0.64589800456050    2.16585350597193
C         0.26873414433760   -1.67902861403983    1.87451588394647
C        -0.16287072413667   -3.00182165238060    1.86581222578020
C         0.77144098955388   -4.08078996478204    1.51262121567115
C         0.75068551278883   -5.29609168027944    2.19188674199277
C         1.63104364948589   -6.30614109286087    1.85155979812405
C         2.54095573845871   -6.12044275162593    0.82455377787170
C         2.56773727766557   -4.91677459800673    0.14091089599835
C         1.69225330513335   -3.90385722377410    0.48232246879011
C        -1.49535692393460   -3.27214868975994    2.17153673944656
C        -2.36891480395194   -2.24818356284604    2.48688582706368
C        -1.93462531214837   -0.93464549443412    2.48858510778601
O        -0.37005121538231    1.57685446434060    3.00234516884874
H         1.40482954115697    4.88003834261466   -0.46333009020223
H         3.71677690457095    5.65200110865831   -0.76082351930188
H         6.14384920912007    5.25507357775068   -0.53172837919777
H         7.99710236644273    3.82874412568955    0.23997366311057
H         7.53282009129195    1.66430884119793    1.31756855083298
H         5.21061320027299    0.90555618670655    1.63133051367794
H         2.80743986546063    1.29262053220971    1.37590017037092
H         0.04410142911369    3.14612435526136    1.35804594428947
H         0.37719668959977    3.06148789169443   -1.57086995746794
H        -2.36795406594505    2.34035368085593    0.90214066198525
H        -4.50176793136312    2.84090326783271    1.99442091360264
H        -6.48029367688198    4.28752684663732    2.23399277668885
H        -6.72033386311732    6.30387289981975    0.84226839588262
H        -4.98321173544534    6.89285921380095   -0.80129337753343
H        -2.83265762281154    6.38847756112438   -1.89472370443613
H        -0.86776029162984    4.93294564421101   -2.14391610852907
H        -4.02268286533676    0.08992234676395   -0.86528712592587
H        -4.78960426964618   -2.23032780395701   -0.45831558584552
H        -3.32005386869227   -4.12104920226887   -0.99318989596148
H        -1.45680978955401   -5.19902092025053   -0.31831946687231
H        -0.00335978862631   -7.10396345120868   -0.82456029099621
H         1.49851166563010   -7.03289016772372   -2.78247581421690
H         1.50978475506013   -5.04304503761431   -4.24298290565785
H         0.02375066172489   -3.15290794726805   -3.76575441860815
H        -0.32309443708037   -1.40210691432439   -2.37052261839385
H        -0.17667537773991   -0.56120350357204   -0.14843630879188
H         3.26163321575208   -0.64171004642458   -0.82796640246590
H         1.30400667017913   -1.45443066452718    1.66658722026663
H         0.05576649987185   -5.44011578965177    3.00645903232025
H         1.60896225865139   -7.24159923222732    2.39156183067231
H         3.22643270579367   -6.91105121037401    0.55792681497775
H         3.27068585503363   -4.76966969841247   -0.66586805058300
H         1.70599969930220   -2.97406419759054   -0.06594700871134
H        -1.85036646648019   -4.29188842399033    2.15203960912008
H        -3.39736925979902   -2.47318988709925    2.72616805539706
H        -2.61112861125927   -0.12904151260946    2.72988778302077
