60
 energy: -133.346586804739 gnorm: 0.000762762937 xtb: 6.3.3 (4ae9cef)
C        -0.57919879693887   -1.41854458611660    3.02167635754906
C        -0.22723361189700   -2.82435968461794    2.62039085117246
F        -0.64934104686803   -3.74071378429863    3.50083664666843
F        -0.80205279076380   -3.17178077245360    1.43946423312728
F         1.08497432583001   -3.03800494532135    2.45894930610063
C        -1.20719834126490   -1.21214491186932    4.24442863339321
C        -1.56664340191974    0.06367449030226    4.63559486797707
C        -1.31025730294867    1.13747585749699    3.80047538439034
C        -0.68548450388861    0.93524762690456    2.58463248263692
C        -0.29848500989037   -0.33937196135267    2.18328666517792
C         0.38824343633740   -0.49608438131384    0.84599546405116
C        -0.58743823217237   -0.19269334356652   -0.31377490981090
C        -1.08968147194342   -1.41254969180382   -1.04973612129363
C        -0.36516968593568   -2.16154294495997   -1.98258876432328
C         1.04530389190524   -1.82595293442902   -2.39945295506825
F         1.86490742361997   -1.55025349991738   -1.37560346365190
F         1.62794139544593   -2.82337185941532   -3.07515401830346
F         1.09754621277098   -0.75436363262480   -3.21964443802759
C        -0.95607362755030   -3.25511716348299   -2.60877537747295
C        -2.25171802298116   -3.62822243662132   -2.30977779074261
C        -2.97084175474155   -2.90567187025855   -1.37519733311004
C        -2.39168693041632   -1.81290054092004   -0.76129713638269
N         0.12076417736601    0.76612853373144   -1.14054422234273
C        -0.41153801727343    1.49644531195949   -2.14979335478105
C        -1.70940449515755    1.00201722986605   -2.68365516377657
C        -2.96607661726820    1.22295951401974   -2.19784836577481
Br       -3.31829851546728    2.16658101730874   -0.59826400710908
C        -3.99492422052981    0.67674718481897   -2.99957656943380
C        -3.49383382236403    0.05686166300527   -4.09573672053618
S        -1.77823335372354    0.13685232295438   -4.17525506741185
O         0.15811214483041    2.46863090905731   -2.59827863649757
C         1.36148149621051    1.22455331502863   -0.55134245938652
C         1.26131777359296    2.75084281706277   -0.32407581721796
O         2.27178901530735    3.40687237715797   -0.86766591471753
O         0.38031778982449    3.25198923641769    0.31786690358314
N         1.44629785932985    0.49548494465972    0.68665553556878
C         2.35631540503488    0.67626633251953    1.67657586280526
C         3.39261826125163    1.70565448260212    1.40212036659998
C         4.45845152918106    1.65512560872897    0.54937662011273
Br        4.80193166655559    0.20680241687341   -0.60964451264210
C         5.30419380509282    2.78583750128267    0.62494781639898
C         4.86632550367806    3.67660549276859    1.54819506110767
S         3.43684543420185    3.15054348990054    2.34753478070892
O         2.31716867047890    0.06034063581762    2.71822286852949
H        -1.40906109020865   -2.05383536282025    4.88834555830038
H        -2.04583102914717    0.21554964542811    5.58994624800456
H        -1.59350460990288    2.13642576695965    4.09334030390336
H        -0.48413900753700    1.78141679108080    1.94354387926069
H         0.83162632995560   -1.49017402574780    0.74686249554958
H        -1.46536365447903    0.30305350588660    0.12208762228886
H        -0.38964918165460   -3.81947359437644   -3.33260315287716
H        -2.69149957094315   -4.48039444468316   -2.80295056535223
H        -3.98162717807263   -3.18747348599278   -1.12534156894793
H        -2.95942173996467   -1.25071122457538   -0.03490695290540
H        -5.03787318224967    0.75749363620334   -2.75565303392728
H        -4.03286627217757   -0.44303274659071   -4.87491119305605
H         2.20212974527713    1.02585123929644   -1.23337841707417
H         2.14264936667243    4.36704507999696   -0.79950635317772
H         6.18096475908147    2.90653483773699    0.01634826434974
H         5.30143367140603    4.61882501529611    1.81423227781842
