66
 energy: -138.416333071137 gnorm: 0.000467154547 xtb: 6.3.3 (4ae9cef)
C        -1.69503325995655   -3.11711963581322    0.19435611455178
C        -1.01172708682328   -3.49298024940754    1.48041703079139
F        -1.41501181539521   -2.78392025116391    2.54278178551572
F        -1.17886101204376   -4.78055292645330    1.80482144723788
F         0.33390551796059   -3.31499524076585    1.41244341337810
C        -2.43732161924874   -4.09026713262986   -0.46524957991216
C        -3.08262197192225   -3.79214194887790   -1.65033926896403
C        -2.98719024298181   -2.51772006096916   -2.18150714422995
C        -2.24717748307188   -1.54896481805730   -1.53031059960089
C        -1.59611601816151   -1.82826429876445   -0.33306191121988
C        -0.80876015621040   -0.72500470671568    0.33501591543259
C         0.48184508251755   -0.37755955868499   -0.44912739111524
C         1.69063886673762   -1.09999292338187    0.09192484504574
C         2.28368177007094   -0.89264331986754    1.33821776203123
C         1.85271910558282    0.07566846262893    2.41006653004459
F         0.82959362866469    0.89166657973139    2.12877575838051
F         2.86984713963252    0.88901253525718    2.76254190409429
F         1.49908760264710   -0.57642534005829    3.52946355095703
C         3.38649970831669   -1.65287391716345    1.72477512945925
C         3.90157519443177   -2.63210742708172    0.90194351474818
C         3.30006296624160   -2.87110256732071   -0.32060188447059
C         2.21533725542511   -2.11251577929061   -0.70975976197177
N         0.52790747261976    1.07719685128885   -0.44063986526171
C         1.57314680089736    1.91813278219477   -0.58730795510833
C         2.91573095853219    1.33420114753762   -0.84285564311073
C         3.97655889981996    1.69817836808750   -0.02139259974836
C         5.23630319433166    1.17602089304060   -0.25314923137599
C         5.45396542316976    0.31151217731355   -1.31167992150806
C         4.39902659815593   -0.00930399294929   -2.15176239314430
Cl        4.65712403093072   -1.07675194656607   -3.48186815689041
C         3.13029700674865    0.49878335504282   -1.93176854288352
O         1.40305384481419    3.13223127385047   -0.52241272449158
C        -0.78316737418620    1.63648622842351   -0.14107943054652
C        -1.40170232476006    2.25795955187517   -1.43238645655514
O        -0.89175796748341    3.42091024465110   -1.76942315071521
O        -2.25955716118267    1.69734222556067   -2.05261690237161
N        -1.54795920085053    0.52794962150564    0.34980007791521
C        -2.83659391088060    0.56936165763796    0.79065915266029
C        -3.44348874811378    1.93592635416776    0.82315717192665
C        -4.50088979638845    2.22085916811959   -0.02903062614440
C        -5.08419978257074    3.47639555986950    0.01534958676591
Cl       -6.38483324399528    3.84329275069260   -1.05403593972782
C        -4.64030899451948    4.43968140579422    0.90836451785371
C        -3.60330503841118    4.13449059651182    1.77251266178911
C        -3.00128465871536    2.88877321747919    1.73376440035947
O        -3.42524981215691   -0.43193273757392    1.12916464544556
H        -2.51394833519471   -5.07954078612927   -0.04193950810105
H        -3.66367093517782   -4.55173051568752   -2.14936159621126
H        -3.49489043885933   -2.27126543530799   -3.10123672005972
H        -2.20474788098043   -0.54944428842584   -1.93693896222662
H        -0.57335467423526   -0.99848696076562    1.36847141649358
H         0.33566404282235   -0.70300849454950   -1.48962768216249
H         3.82903702598236   -1.47060956341817    2.69238879743724
H         4.75312425174072   -3.21131463268061    1.22069749610692
H         3.67319623679516   -3.64534709057362   -0.97213808765958
H         1.75262181008740   -2.31141870036738   -1.66465947601724
H         3.80525641181589    2.37862158630251    0.79741878304020
H         6.05580609507558    1.44623248690660    0.39397134294734
H         6.43307985595511   -0.10141167862921   -1.49525006026967
H         2.32869633093597    0.26000215757143   -2.61264385070639
H        -0.66852095034220    2.43511238567556    0.60991322418055
H        -0.07368905032955    3.63909740799757   -1.24670404033486
H        -4.84989453312349    1.47414967717869   -0.72392480659798
H        -5.10773574993921    5.41132198544881    0.92973625923760
H        -3.26372671126899    4.87459514804144    2.48091978348337
H        -2.20609018998397    2.64755508272389    2.42395685208745
