68
 energy: -139.349471347437 gnorm: 0.000630021997 xtb: 6.3.3 (4ae9cef)
C         2.66295948772056   -1.83685466109768   -2.39699038344513
C         1.71559459542977   -2.00827667158900   -3.55207140242540
F         0.63579942877419   -2.75402289773624   -3.22175864901597
F         2.27280000921207   -2.62566282018731   -4.60008485826125
F         1.22389286818940   -0.85022905717738   -4.02578038092570
C         3.96154470918333   -2.31336190545489   -2.52706480105867
C         4.85557485672515   -2.19582931050138   -1.48050528733361
C         4.45187056697459   -1.60659577365483   -0.29559814044834
C         3.16052135938296   -1.13512743037500   -0.16554243198638
C         2.24863196683095   -1.23331172198489   -1.21012216599440
C         0.85174505193750   -0.71141545224593   -0.99808943115446
C         0.05888711163624   -1.55099649615055    0.02631164131210
C        -0.83091343985814   -2.57762988253556   -0.62708484344642
C        -0.59417422228948   -3.94959898886237   -0.53532876168916
C         0.59339126088322   -4.48649310217597    0.21303573136531
F         1.76620847145800   -4.03236653950395   -0.29231184276060
F         0.68041140803619   -5.82015785337065    0.17809852580825
F         0.61506381904876   -4.15051757773191    1.51604634326300
C        -1.44464366764262   -4.85234147245494   -1.16158369570722
C        -2.53298685046111   -4.39924849961757   -1.88194367055988
C        -2.76922531178891   -3.04016871254388   -1.98673970750026
C        -1.92328002648333   -2.14053240122946   -1.36720982153208
N        -0.71691234540201   -0.54444734451002    0.74606346648461
C        -1.75617695052967   -0.86709828583800    1.56298303401322
C        -2.42195281464842    0.33661510846552    2.16500950049852
C        -1.86657240541084    0.97775460001826    3.26785138506107
C        -2.48390566510107    2.09230219123932    3.81113326270692
C        -3.65340178363851    2.57864446344313    3.25758102845864
C        -4.21959289442421    1.92748950841723    2.16161883896697
C        -5.40724699086846    2.43065288648293    1.57868783468822
N        -6.35290046324988    2.85758306966981    1.09260217078361
C        -3.60863922043662    0.79745483069382    1.61811557708585
O        -2.10505260855070   -2.00419780952798    1.76937991357082
C        -0.26696716462801    0.79774795801670    0.47725128442740
C        -1.35510444867450    1.60869531550143   -0.26227724278740
O        -1.49510089887338    2.82633772056857    0.25563695717239
O        -1.97272140140821    1.20270688986104   -1.20395495667294
N         0.87954243873502    0.61396518541794   -0.38051191352578
C         1.66007901704731    1.60948889102499   -0.89693362660632
C         1.51648466011445    2.93872079896206   -0.22427363481718
C         1.77839487465096    3.09160790080345    1.12862279195917
C         1.64848727811351    4.34816901431525    1.71723539709982
C         1.88214070876499    4.49041371338162    3.10580717869750
N         2.05322060933727    4.59012470767662    4.23451946248611
C         1.27245524135316    5.45117776079736    0.95075962673163
C         1.04702625452141    5.29358789627589   -0.40370665648994
C         1.17237936925767    4.04611779125968   -0.99256844585992
O         2.42821255963572    1.42029272123015   -1.81114445830606
H         4.26845376398809   -2.77641167761933   -3.45168923683000
H         5.86244550120263   -2.56622280750073   -1.59123143160141
H         5.14218148298567   -1.51566493334851    0.52899885925704
H         2.85051705572097   -0.67375603468296    0.76053834955233
H         0.29268409779401   -0.65306326680627   -1.93768408858495
H         0.75038062090266   -2.01859356855126    0.73476674643268
H        -1.25065769912845   -5.91046718140909   -1.08158802440726
H        -3.19026872762081   -5.10752407462524   -2.36136085701182
H        -3.61281972009561   -2.67677912141371   -2.55326729505529
H        -2.11496766280518   -1.08157858460374   -1.45480891568331
H        -0.95720761054671    0.59470814258366    3.70723142259301
H        -2.04771253098937    2.58501695084981    4.66629280558306
H        -4.13694085430378    3.45259067980177    3.66744146753200
H        -4.05466023177464    0.29051164914610    0.77500942685219
H        -0.00675162062242    1.34126610502734    1.39610816842569
H        -2.16386984755112    3.33927329609080   -0.23027269569236
H         2.10308730105015    2.25306190506536    1.72841087302444
H         1.17143828360115    6.41798512995224    1.42045342005277
H         0.77440171523004    6.14706287302908   -1.00539374037488
H         1.00441927438506    3.91741726354216   -2.05112799639573
