54
 energy: -102.940044930737 gnorm: 0.000410025304 xtb: 6.3.3 (4ae9cef)
C         0.11956516241810   -0.90788910523750    2.89962683081487
C         0.48323702062539   -1.26098031914736    4.18886703711395
C         1.45565279434869   -2.22115059689163    4.40476347986084
C         2.06736088036950   -2.83299678680198    3.32331000321596
C         1.70501008749110   -2.48612805326345    2.03497388737998
C         0.72720267549041   -1.52173118176446    1.81173729840077
C         0.43000513154293   -1.13863342951499    0.37811742797431
C        -0.93803889484023   -0.47008277700764    0.13846835116825
C        -1.53854567778944   -0.87617140710273   -1.18665403392632
C        -2.66788102391443   -1.68305440511589   -1.22338753361811
C        -3.23599479644875   -2.03750904644527   -2.43397950070275
C        -2.67792424147865   -1.59071076092404   -3.61932529777239
C        -1.54467448548656   -0.79574876630175   -3.59003238539629
C        -0.97595588624007   -0.44034478605376   -2.38076178716795
N        -0.62177901055676    0.95512929838806    0.15600902753348
C        -1.40648205524185    1.95307826326112   -0.33291762081762
C        -2.84154689116569    1.62922327840169   -0.47402782917649
C        -3.72395491460984    1.05618699646742    0.40050788120413
F        -3.37672649820944    0.60958102435535    1.61676276451142
C        -5.04873417595000    0.97227913202183   -0.07204692214053
C        -5.15768136955193    1.49672137608078   -1.32027023838892
S        -3.66910933024342    2.11004647448046   -1.91058271024575
O        -0.95222677677382    3.03652855007426   -0.63989658275458
C         0.80424638604416    1.17599317492926    0.21982663906549
C         1.22984226156799    1.70722767564472    1.60389363051782
O         2.55002024635184    1.62197118952463    1.74281775103554
O         0.48830409711725    2.16160623133073    2.42289300340517
N         1.36649871274443   -0.11206168711366   -0.06939092161473
C         2.55397256985773   -0.41610157685121   -0.64096858815145
C         3.35178613552803    0.75270632459906   -1.10310884306580
C         4.56163607824597    1.17853470380083   -0.63798268495938
F         5.16984618822748    0.64355867058592    0.42499923089848
C         5.11190236545223    2.27063629624017   -1.34791327758566
C         4.30900286634006    2.65233459236281   -2.37093724639767
S         2.88300855539326    1.69975515911925   -2.47331396596485
O         2.93144072004759   -1.55700851724540   -0.79217669482639
H        -0.63306423639840   -0.14656666008530    2.76445002684508
H         0.00334447656400   -0.77547687134188    5.02535182640102
H         1.73732504745908   -2.49061781420784    5.41192066151151
H         2.82929758931988   -3.58122650478639    3.48219034776775
H         2.19094941443171   -2.95104290401353    1.19066364897914
H         0.56532336756629   -2.01478679448864   -0.26477241934611
H        -1.62501179964403   -0.73029210576073    0.94708188098301
H        -3.10660238569255   -2.02904543982727   -0.29841916141629
H        -4.11815476143511   -2.65976171327940   -2.45010595756392
H        -3.12417275680577   -1.86207411340959   -4.56396606085312
H        -1.10173113190706   -0.44784362705198   -4.51075079086390
H        -0.09526991407236    0.18561169547401   -2.37054280812180
H        -5.85350493442480    0.54673071290793    0.49760577202400
H        -6.03585482694361    1.56253738119359   -1.93014514346576
H         1.09067267337008    1.94895889003497   -0.51092910999720
H         2.83631125301957    1.94933665152626    2.61122816741892
H         6.05270028476372    2.72311821010674   -1.09636501069825
H         4.46515773412564    3.43764879811946   -3.08239644902862
