78
 energy: -117.620342213722 gnorm: 0.000338820815 xtb: 6.3.3 (4ae9cef)
C         0.67889606724456   -3.94391618782412    0.60776028881642
C         0.89282550944493   -4.96186384540045    1.51986193578820
C         1.24808682280969   -4.66366928656308    2.82398041580699
C         1.38252703821858   -3.34252664043285    3.21572265714102
C         1.16040457295745   -2.32446907354741    2.30700048591025
C         0.81705139695979   -2.61894173999814    0.99408659144935
C         0.54051287202065   -1.51419996910935    0.01181224967038
C        -0.85715776026111   -0.89178887494640    0.23743776393833
C        -1.88028008123069   -1.57312483123177   -0.62754460627207
C        -1.86985630158487   -1.39246493113359   -2.00543603897511
C        -2.79364799143127   -2.04618908863170   -2.79881295520021
C        -3.72497700641079   -2.89647691491285   -2.22633806654965
C        -3.72061915443805   -3.10040266362353   -0.85800527829801
C        -2.79963570254181   -2.44329748385967   -0.06152157660412
N        -0.64491078271092    0.51231949411526   -0.06401965473286
C        -1.46845567455047    1.39233969594534   -0.68152867933977
C        -2.92420895211883    1.10693210502043   -0.66839469289914
C        -3.64954263130176    1.27710338626559   -1.84207168215506
C        -5.01107150410737    1.04712637421751   -1.84124844255129
C        -5.65288680860153    0.68527330705825   -0.66956735189884
C        -4.94957181948614    0.55281054053482    0.52131201253884
C        -5.67512636050758    0.21968513143425    1.80204874428709
C        -5.13931001992748   -1.06759712148551    2.42966409262330
C        -5.57757869881916    1.38693431326874    2.78728372666321
C        -3.57659659979479    0.75794153949294    0.50626615928810
O        -0.99836982606101    2.40058350796159   -1.18888279913728
C         0.75847718607737    0.87054421374712   -0.00525319883743
C         1.18607956585134    1.59533192318773   -1.30088094142194
O         0.90266176127442    0.85137766075254   -2.37968081090998
O         1.84212648683325    2.59619272021312   -1.33589288537112
N         1.44508111625274   -0.38621071540486    0.17218918883358
C         2.79370596458448   -0.58066103399318    0.06283481741215
C         3.61427532928434    0.65024665784691    0.23706415097913
C         4.46525442337540    1.05071902575811   -0.78291758229054
C         5.23450723106431    2.19813461221401   -0.66162623879115
C         6.09489237879495    2.65999443344785   -1.81040782228186
C         7.56617359896699    2.75788277073674   -1.40425672165653
C         5.57780006534485    4.00101621104616   -2.33708301763943
C         5.16484340511958    2.91973567224249    0.52376243552843
C         4.34898684885937    2.50471305290017    1.55987247821781
C         3.56353511551321    1.37585724251903    1.41982437450891
O         3.26132615622650   -1.68381600304922   -0.12551782433141
H         0.40807485093380   -4.17691559193727   -0.41167695253423
H         0.78830558901015   -5.99088511277939    1.20942153634796
H         1.42395285400057   -5.45867426890173    3.53334469362564
H         1.66267955519007   -3.10471571203717    4.23143753053660
H         1.26940436233344   -1.29354786688640    2.61245790986279
H         0.61620355146766   -1.90764847377762   -1.01146084386101
H        -1.12874522683137   -1.00252882584670    1.29746894657001
H        -1.14106729856004   -0.73226669789910   -2.45334074932776
H        -2.78564486416845   -1.89493088255276   -3.86781185830855
H        -4.44716388693000   -3.40490790970030   -2.84723228277492
H        -4.43471468082799   -3.77465126392043   -0.40885404832135
H        -2.78946264990652   -2.61068569685218    1.00538918156041
H        -3.13591063958620    1.58089022049547   -2.74094707312673
H        -5.57816509497497    1.16093035344287   -2.75298560559853
H        -6.72049387630576    0.51729595662886   -0.67669285329359
H        -6.73260869321676    0.06452789085077    1.56166875651585
H        -5.72509762460617   -1.32691835323840    3.30875670140705
H        -4.10277440410241   -0.94836825029205    2.73458207349664
H        -5.19930898537165   -1.88682183538728    1.71713786802590
H        -5.96628782311470    2.29690048329452    2.33591186352896
H        -4.54462344770931    1.56339410790512    3.07638182477865
H        -6.15394513565704    1.17123975102342    3.68415459339920
H        -3.00731285965565    0.67279531965489    1.41956220759764
H         0.94870783531109    1.56758119739701    0.82625148035051
H         1.18969272043338    1.31809236259605   -3.17989436920564
H         4.50611721036005    0.46258907683328   -1.68901623945278
H         6.01271162472807    1.92060856220491   -2.61471434948431
H         7.91814817422506    1.80140500445060   -1.02392047377252
H         8.17411563838496    3.03443239067628   -2.26298299644801
H         7.70715104227196    3.50808379994036   -0.63035872308302
H         5.72640940272299    4.78607023401002   -1.60006390576200
H         6.10418571569819    4.27936082956308   -3.24760381667417
H         4.51362748544081    3.93332994665960   -2.55046563271488
H         5.75221319392572    3.81757296583087    0.64307757591861
H         4.31720374765493    3.07028263159645    2.47977602406161
H         2.92819640017093    1.04790047009848    2.23034530489652
