62
 energy: -116.112860089601 gnorm: 0.000357821319 xtb: 6.3.3 (4ae9cef)
C         2.20361762100964   -1.47787891028603    0.06234055896627
O         2.20821652631541   -1.35545291691902   -1.29572362593067
C         3.05876943994956   -2.19192318009331   -2.04408042857909
C         3.02772997021980   -2.33882943026270    0.77722745379901
C         2.96198532748692   -2.37995102919946    2.15965173863469
C         2.07178676740164   -1.57592284200066    2.84636851525984
C         1.24706189454143   -0.71855827348295    2.14001896681802
C         1.31109588522494   -0.64991401683288    0.75783071430178
C         0.42541561105687    0.29888241204851   -0.00093815431697
C        -1.05935920087208   -0.09990815575192    0.04815914496896
C        -1.42500684666842   -0.92719069908152   -1.15158662470488
C        -1.80617514051627   -0.35108447383742   -2.34897418350946
C        -2.10284006955851   -1.13750450789357   -3.44939700644055
C        -2.00629766350743   -2.51177688703700   -3.34808840700160
C        -1.61140649268333   -3.10556799237691   -2.16082438810551
C        -1.31104122276875   -2.32120632343563   -1.05426720235465
O        -0.88592790527847   -2.80410729934359    0.14684630214368
C        -0.86320830802319   -4.19665220798069    0.34621211055411
N        -1.75380165491118    1.18346698836891    0.10669578748294
C        -3.12222497162056    1.13426846299372    0.25986646285524
C        -3.80801108344062    2.42368655492350    0.45121945895268
C        -3.57380506405663    3.66565511192922   -0.07406209472047
C        -4.53316092420947    4.61954318525001    0.30908404684099
C        -5.48278363746446    4.07249157762283    1.12069008876178
Br       -6.93661395387274    4.97534943216358    1.87872942737610
S        -5.23784054526575    2.39067674160056    1.41753729166607
O        -3.73658512090630    0.09489314160401    0.16416438582240
C        -0.91528444800698    2.14406583460085    0.77463563858670
C        -1.29765522011053    2.26261673000179    2.29074414759253
O        -0.56421632571791    3.09609613211056    2.98719028182361
O        -2.22347226425160    1.64580388596120    2.73443788128055
N         0.43196465687430    1.63832009487901    0.57458467308210
C         1.52578340970158    2.37083072422230    0.83101474882402
C         2.80213688638913    1.77525386559940    0.38250527828975
C         3.22352359253480    1.54658913292865   -0.89492189011510
C         4.49954861315279    0.95462306990017   -0.95775813355537
C         5.01544300209390    0.74188948153643    0.28354801495289
Br        6.64119994424486   -0.09508580415327    0.68639468035656
S         3.98324421607976    1.30028107048511    1.55260239348068
O         1.46831694988392    3.45518937759535    1.40884503193455
H         2.88018720941178   -1.93128193252264   -3.08595261171194
H         4.11166307155174   -2.01841971975923   -1.80036346668889
H         2.81792466668672   -3.24775193337891   -1.89059039670293
H         3.72935857179913   -2.97905138546140    0.26695503793689
H         3.61567342227177   -3.04935985028914    2.69776924577115
H         2.01794236464085   -1.61372725080056    3.92267876180203
H         0.54854058538454   -0.08692609378498    2.66993548015546
H         0.75012158588443    0.34313088401991   -1.04614456122206
H        -1.27464073011023   -0.68104252343434    0.95448881177331
H        -1.88649538649076    0.72405636885254   -2.41322739508287
H        -2.40784854193836   -0.67836765745513   -4.37703955904700
H        -2.23732445729981   -3.13598402045662   -4.19849774126493
H        -1.54171153108300   -4.18061600050789   -2.10831164509947
H        -0.14070995533253   -4.68636658925782   -0.31516806336628
H        -1.85273370904547   -4.63937558118835    0.19920771650211
H        -0.55358904863062   -4.33747908480080    1.38069667449735
H        -2.76790420279860    3.89129374348095   -0.74953270833962
H        -4.52564820960669    5.65000572981959    0.00392739695235
H        -0.99554246998253    3.15125149133529    0.33817562752599
H         0.21233814883452    3.46396998734944    2.46937698099950
H         2.64692191632888    1.79667989290194   -1.76672007503337
H         5.00335144906811    0.69340046699125   -1.87018459642862
