92
 energy: -138.417116811775 gnorm: 0.000379253581 xtb: 6.3.3 (4ae9cef)
C        -0.88116975347591    2.70008407392578    1.09612922513526
O        -1.01376535031966    1.46388062496950    1.66242397386408
C        -1.29271556275381    1.37727402051928    3.03766285951038
C        -0.91232196991100    3.89065204479001    1.80910067638441
C        -0.72916904151407    5.09978408603628    1.15918358258385
C        -0.51579248152011    5.13572561835829   -0.20425575007366
C        -0.50034884022023    3.95173838501871   -0.92142057037549
C        -0.68544092120474    2.73426733490721   -0.29308154990406
C        -0.62751479299294    1.45717688253380   -1.08094792645498
C         0.62079587065751    0.62317067818143   -0.70812443291479
C         1.78094385574785    0.87817116942658   -1.62910648107684
C         1.90631958258656    0.23052965557778   -2.84466029489901
C         2.98406340593647    0.48365145381490   -3.67620517769626
C         3.93975616644961    1.40255418014999   -3.28897443853434
C         3.82672900182105    2.06871055984111   -2.08000795244178
C         2.75113191543098    1.81347854299339   -1.23944630685354
O         2.55524267770460    2.40945506547398   -0.02941625857721
C         3.50117453825871    3.34427599866300    0.42523639894739
N         0.13748833688338   -0.74664940193331   -0.72003952303325
C         0.80374299022478   -1.81179896745728   -0.20338357097192
C         2.24169477822094   -1.51442875854824    0.08262819518770
C         2.62018741667274   -0.86389610046219    1.24668125088480
C         3.94699875705606   -0.53760833966192    1.46807100825367
C         4.93092977114864   -0.85112211895757    0.53880909421043
C         6.39558625446007   -0.48771763632928    0.72849290509342
C         7.22869338181057   -1.77632476452485    0.76871786733988
C         6.84900424881239    0.38755112159458   -0.44836294579776
C         6.65071692569369    0.28587726670779    2.02525228772387
C         4.53940082370758   -1.53635784732855   -0.60891125150058
C         3.21920487239451   -1.86814503640927   -0.83664421029125
O         0.26998363469744   -2.88838030584879   -0.03355948027373
C        -1.27827462740594   -0.80072493917384   -0.98099992446164
C        -1.61042579936605   -1.28585695310223   -2.40612746466034
O        -0.65888783030929   -2.05824374848337   -2.91968381762290
O        -2.62629325686240   -1.01035799182214   -2.98045363404146
N        -1.72767659472884    0.55002712541240   -0.78598514260222
C        -3.01866921236339    0.97738432124220   -0.70862025704638
C        -4.01438615926824   -0.07511727862678   -0.35944951599779
C        -3.89675422682379   -0.81769291894932    0.80985159868187
C        -4.85963315708506   -1.75009244012080    1.14048326899895
C        -5.96311702346209   -1.97964499806125    0.32052938372849
C        -6.98783434357759   -3.02831570275359    0.72409472464782
C        -8.12090485640469   -3.16976970890779   -0.29581460019473
C        -7.60429879602441   -2.62960951588717    2.07244444988632
C        -6.28829938095411   -4.38894063339682    0.85195996947888
C        -6.07506413650430   -1.21816962341428   -0.83654216143119
C        -5.12270581959997   -0.27079497292843   -1.16833688232748
O        -3.32076437111550    2.14219212671706   -0.86614741065154
H        -2.23978084544797    1.86539403493643    3.28745822842151
H        -1.36779520426410    0.31247930870059    3.25752433134390
H        -0.48793513656724    1.80943330797101    3.64211980132795
H        -1.08046202028362    3.88975040118764    2.87459793532831
H        -0.75669293832249    6.01563740869763    1.73111826176644
H        -0.37233019256433    6.07811216007932   -0.71015968866814
H        -0.34837681264084    3.97064176322556   -1.99046612446170
H        -0.61719748783973    1.69254327526993   -2.15585932046785
H         0.92817617167438    0.89140323500643    0.30723116928408
H         1.16074715911018   -0.49531661412703   -3.12931167328906
H         3.07491949531100   -0.03334751543159   -4.61903045914302
H         4.78469245412114    1.61049704873147   -3.92835458496129
H         4.58208208905858    2.78808660338542   -1.80612174512672
H         3.13485419648867    3.68200864257503    1.39329613078445
H         3.57516913015687    4.20326975733021   -0.24848949338101
H         4.48894755368784    2.88803516117988    0.54857763810344
H         1.87615233157669   -0.60922911133177    1.98805707289119
H         4.19771767454067   -0.02610796873972    2.38318861847853
H         8.27918893096685   -1.53917356101705    0.92352058508175
H         7.13824757974858   -2.33450943607652   -0.15865088843713
H         6.89451786808939   -2.41431887975626    1.58396089212787
H         7.89149710709396    0.67321887857315   -0.32409064907553
H         6.24556102513367    1.29106596583920   -0.49897359259161
H         6.74823405577153   -0.13545597006722   -1.39478190004050
H         6.38655495225178   -0.31061836035366    2.89511806727430
H         7.70808617742481    0.53303942940389    2.09778774218732
H         6.08670521752572    1.21591538260981    2.04707267184065
H         5.27330985242652   -1.81666438356906   -1.34891474329724
H         2.93888148362413   -2.39563599554600   -1.73574503860065
H        -1.75925769269898   -1.52043166746220   -0.30083956982748
H        -0.92724601124053   -2.40860993495081   -3.78556579490769
H        -3.05930191525259   -0.64755679493727    1.47151692033995
H        -4.74178138050648   -2.30757761568823    2.05773104223207
H        -8.81376507495231   -3.94005877838571    0.03719376865971
H        -7.73570074816582   -3.46275568781341   -1.26956718194082
H        -8.67627935308296   -2.24029125234528   -0.39610087116997
H        -6.85022926228434   -2.57550702932860    2.85265260128490
H        -8.08278959039415   -1.65572955109477    1.99286584568155
H        -8.35345197295544   -3.35939752531897    2.37234071643574
H        -7.01096825169653   -5.15780527902494    1.11736658218604
H        -5.51670864382971   -4.37001366571098    1.61631561240026
H        -5.82422901116259   -4.66247922138270   -0.09321157851188
H        -6.91392334543940   -1.34852218813668   -1.50008305099595
H        -5.22559751481980    0.31472358911007   -2.06839407440913
