84
 energy: -140.881149205134 gnorm: 0.000302940442 xtb: 6.3.3 (4ae9cef)
C         2.51474940175180    2.78129404361103   -1.86931028151240
C         2.94770317035130    3.14601678414757   -3.11055414210306
C         2.09502774823668    3.04744979780479   -4.23018293549963
C         2.50447176975441    3.42029894161802   -5.52669552433907
C         1.65043862435107    3.30272221482758   -6.58743585237591
C         0.35180869934693    2.80300776398527   -6.40095138686432
C        -0.07558191968558    2.43579505218907   -5.15578908089293
C         0.77937790408323    2.55236583629372   -4.04043091299728
C         0.35848227838764    2.18562513533105   -2.74497141080825
C         1.20249858060816    2.30026669194926   -1.67229982249117
C         0.83578422383751    1.87698034298508   -0.26893289201702
C        -0.66300191413934    1.81327937975323    0.06247301741972
C        -0.95697440340663    2.31219668732934    1.45576943552813
C        -1.66770937033028    3.46634710628264    1.64726820826985
C        -1.94480396098003    3.94595548820682    2.94300015321031
C        -2.68273586190121    5.12804770490456    3.16136482396748
C        -2.94122969324845    5.56472507778277    4.43022699270094
C        -2.47288606326825    4.84174333384955    5.53876362519615
C        -1.75461585287831    3.69277416043193    5.36002257510746
C        -1.47283522335258    3.21470710588095    4.06385215239383
C        -0.74271575498196    2.02901321187116    3.83997328598740
C        -0.49358720893539    1.58868759079144    2.57242141976744
N        -0.98547669050909    0.39396619141248   -0.05059733963197
C        -2.28547206716609    0.02997088880901   -0.24220697039773
C        -2.58073490172996   -1.40245787708878   -0.38094119539787
C        -3.74049221869289   -1.98289500509086   -0.82052611379373
C        -4.98900794916548   -1.32238586769928   -1.27279796720501
C        -3.51049209869484   -3.39644397127014   -0.77156608612669
C        -4.27059013901207   -4.52389812261995   -1.07784442317939
C        -3.70085089413128   -5.76351642121675   -0.88794506332126
C        -2.39882363409730   -5.90029295786319   -0.40155378294563
C        -1.62509014951914   -4.79995843926868   -0.09042220699508
C        -2.19976038563679   -3.55410100740883   -0.28517889586815
O        -1.63744489673979   -2.34770015428793   -0.04988303891126
O        -3.16584955293667    0.87337996633915   -0.25055812814380
C         0.19219470289665   -0.39144237395834   -0.32664533588098
C         0.17557497936753   -0.84811059685266   -1.82085259518011
O         1.28961769196174   -1.42421203064141   -2.24695595388908
O        -0.78255201663077   -0.69296712070863   -2.51799925041645
N         1.28796757894788    0.50055326030182   -0.04281277274481
C         2.37759888746857    0.27796792089416    0.74625641504667
C         2.73123163993499   -1.11978139566480    1.04624617088976
C         3.47638023504167   -1.60494773773675    2.08539490074750
C         4.08040502859245   -0.85170464737502    3.21059409801977
C         3.54726462545427   -3.02454026095911    1.88593855445521
C         2.83530764699525   -3.28557926822971    0.70248198343230
C         2.69262687871210   -4.55964835558444    0.17934302723086
C         3.28918509413388   -5.58760142449651    0.88227297540746
C         4.00175024962113   -5.35069052402546    2.06010623093550
C         4.14093178976890   -4.08068900576839    2.57526715357774
O         2.33577188563602   -2.13140714860554    0.19278125679011
O         3.05940337127695    1.19787327220827    1.16352815995818
H         3.17282468998687    2.85140405351424   -1.01552539545523
H         3.95262285121918    3.51736342832477   -3.25198550090371
H         3.50669098650782    3.80072674607325   -5.66522073604724
H         1.96952177023215    3.59145069493095   -7.57841367600000
H        -0.30646608353645    2.71154282385447   -7.25246974876942
H        -1.07112174831424    2.04492998854189   -5.00489690242866
H        -0.64613438863508    1.80491544692149   -2.63747906452609
H         1.36793373713037    2.51439146124232    0.44592179035822
H        -1.26703380927176    2.38375265510273   -0.64925144241573
H        -2.03653338677703    4.02243915168409    0.79765308461097
H        -3.04241663732706    5.67967040156526    2.30476281851127
H        -3.50886075530897    6.46969517620903    4.59077319839944
H        -2.68691415470564    5.20198592676345    6.53449505774769
H        -1.39294801182516    3.13204146247753    6.21045115294604
H        -0.38510459384290    1.46994148988563    4.69309807590713
H         0.06098376833214    0.67382992472140    2.42010755521521
H        -4.88077572307093   -0.24448740957844   -1.21422989922738
H        -5.82271870425585   -1.63343999924623   -0.64421976145963
H        -5.21124385078086   -1.61478307368187   -2.29826207742496
H        -5.27740247317691   -4.42131084246455   -1.45177711930348
H        -4.26810059166707   -6.65327333740412   -1.11704186100578
H        -1.98910902574890   -6.88983721293033   -0.26574074464519
H        -0.61968668606252   -4.89832859618443    0.28904420638939
H         0.23312805666464   -1.28691214916180    0.30449896516889
H         1.92979901582114   -1.57877840857128   -1.52733318967622
H         3.65311346759435   -1.18495432871325    4.15608137047277
H         3.90793794209457    0.21259957728797    3.08510031119387
H         5.15299844585184   -1.03685347390351    3.24339517576702
H         2.14298338389583   -4.73020172828616   -0.73269591398197
H         3.20443542857344   -6.59796818707602    0.51276761634208
H         4.45245531432852   -6.18646438485343    2.57345933137180
H         4.69289890117400   -3.90112751448806    3.48442806875464
