88
 energy: -142.855825538908 gnorm: 0.000396906690 xtb: 6.3.3 (4ae9cef)
C        -1.68355303606813    4.74903313980728    0.60246465637645
O        -0.88372985296084    4.83195062527019   -0.49703609121570
C        -0.79128454931294    6.06001823667666   -1.17518166294105
C        -2.46880243798849    5.78740808954109    1.08719891473025
C        -3.24131396854414    5.60614047442273    2.22255816997654
C        -3.23527789046468    4.39707233095550    2.89004353810823
C        -2.44978180318567    3.36088759999089    2.41391037952203
C        -1.68401852446658    3.51693361723347    1.27345828216233
C        -0.78549055833141    2.42722919795825    0.76200782536075
C         0.59503160277760    2.48653916959339    1.43806502989555
C         1.53528355998615    3.39672038473481    0.70277913848495
C         1.88300826669216    4.61751042505131    1.25085749304170
C         2.68591396756036    5.50801950911659    0.55866527942893
C         3.15237872485012    5.16708998044746   -0.69545082622350
C         2.81926846366304    3.94787769326075   -1.26069985454078
C         2.00558886571959    3.05569379518198   -0.57460902507370
O         1.61455711827078    1.84536364250926   -1.05360164672472
C         2.01524536045542    1.45390463654566   -2.34275501219752
N         0.99730504407574    1.08669710802754    1.47379147505235
C         2.29063305010037    0.70923351903383    1.62206392160640
C         2.51311324286977   -0.77010439803396    1.54925937601630
C         2.34706037788988   -1.57822653359057    2.66670385292319
C         2.58163789885323   -2.93827817761616    2.56677010974075
C         2.97614681795367   -3.49249515545129    1.36257358246108
C         3.16666364779038   -2.68937131109980    0.24021758849637
C         3.59498120792122   -3.26795593317068   -1.04245793868376
C         3.05166511383731   -4.46547369466770   -1.50104715498381
C         3.45394781278413   -5.00315344850788   -2.70963547891559
C         4.40890139535831   -4.35637405217648   -3.47579161253663
C         4.95723161129155   -3.16615601503351   -3.02782863264207
C         4.55165157080659   -2.62345184257192   -1.82296452593565
C         2.94011047302605   -1.32035901458605    0.35050826863790
O         3.19187135199228    1.50138707742380    1.79359516624534
C        -0.14675257119129    0.20769526083047    1.40831940766471
C        -0.01233969618951   -0.88897789009364    0.33050315138360
O        -0.07816907786406   -2.10736063199635    0.87147967893892
O         0.07729078605114   -0.69309959669863   -0.84669159643858
N        -1.25167600540491    1.08599365888914    1.08349278494540
C        -2.46341086147720    0.66415221184823    0.61753440836122
C        -2.78671796014425   -0.76144057331873    0.92912856018653
C        -3.07292950170368   -1.62918710907900   -0.11431856789700
C        -3.37538060866390   -2.96414173856206    0.13720837257471
C        -3.65072887855297   -3.88899555230485   -0.97311539048434
C        -4.45233111672222   -3.49296990526802   -2.04077603872683
C        -4.72037130444770   -4.36670047786190   -3.07802127767867
C        -4.18555341185742   -5.64428528499331   -3.06932395563697
C        -3.38122696094209   -6.04504590957809   -2.01577716704181
C        -3.11798511737550   -5.17579394191614   -0.97331621008037
C        -3.41627120426190   -3.40596472059912    1.45765532147665
C        -3.17201399421138   -2.53152060591904    2.50066012236150
C        -2.85184536180245   -1.21087412688820    2.24313702545742
O        -3.22903772469952    1.40280217050638    0.03864812248447
H        -1.75413847320429    6.36081737103182   -1.60068624835186
H        -0.07573931339640    5.89511160670380   -1.97914244572038
H        -0.41499700385436    6.85121861241435   -0.51906966481593
H        -2.48891308187366    6.74208020360007    0.58592862748325
H        -3.84933644267970    6.42256719687165    2.58304250399504
H        -3.83650225663301    4.25893010384140    3.77547242273428
H        -2.43839724989248    2.41194589213038    2.92924016214861
H        -0.67900435528890    2.52951744838687   -0.32376060884615
H         0.48231040283343    2.84823040203258    2.47151228336216
H         1.51457360928209    4.87575402204065    2.23312802821278
H         2.94713862628475    6.45797508330789    0.99941916800089
H         3.78371276742273    5.84959236575660   -1.24553931606427
H         3.19876811045689    3.70109080595427   -2.23994839772254
H         1.54438896222792    0.48480944437952   -2.50252317995433
H         1.66421938766109    2.15808192850089   -3.10396676435872
H         3.10397352708360    1.35459156956402   -2.41484398149422
H         2.04288307257208   -1.14267987624517    3.60692348755588
H         2.45679488352521   -3.57013337053856    3.43352708303126
H         3.16683337530877   -4.55374380362853    1.29573624640345
H         2.29749802338890   -4.97015982668206   -0.91347033363925
H         3.01988001051868   -5.92988121555846   -3.05603290826636
H         4.72503187578558   -4.77867779392898   -4.41802524527610
H         5.70645959688070   -2.66039628943601   -3.61935193206252
H         4.99437025954519   -1.70439755625369   -1.46814075503159
H         3.06515096500672   -0.67976037531221   -0.50883961659214
H        -0.31016545600130   -0.30494209220310    2.37239724791765
H        -0.01786682270299   -2.79223292828165    0.18550425280569
H        -3.02500578808686   -1.26268351528952   -1.12901627871746
H        -4.88254951475021   -2.50243042163656   -2.04250358809146
H        -5.35098054697183   -4.05088917455110   -3.89606176708140
H        -4.39500477518083   -6.32563057392065   -3.88052160393355
H        -2.95802393017536   -7.03908734950730   -2.00645378690187
H        -2.48096290293002   -5.48899724890356   -0.15807762400354
H        -3.67079043359584   -4.43471986169256    1.66631537140367
H        -3.23227098473378   -2.88125910838354    3.52064099868381
H        -2.67183647760107   -0.52520658784668    3.05822682577656
