80
 energy: -149.515970530509 gnorm: 0.000491089898 xtb: 6.3.3 (4ae9cef)
C        -1.85166348455514    4.72446132753300   -0.44458300287785
C        -0.87703010313435    5.38576742746245   -1.37694475451767
F        -1.20080898268715    6.65150709510412   -1.66834060324912
F         0.37449624586924    5.44358125532035   -0.86049910257284
F        -0.74430467414121    4.76103254203432   -2.56153500110730
C        -2.94264889811354    5.45965167189579    0.00283742705150
C        -3.84722900518423    4.89737351582749    0.88200845157712
C        -3.65970147341709    3.59944197058351    1.32342120930971
C        -2.57387992815416    2.86816118711640    0.88358664442297
C        -1.65952671604451    3.41262535244746   -0.01138741528031
C        -0.48165961376825    2.57564584075078   -0.44084042582048
C         0.48851569153376    2.30296856333276    0.72890377089875
C         1.67157756950945    3.23588943510146    0.72346982943788
C         1.84840431601252    4.25571637452042    1.65792487514688
C         0.84082341418376    4.50099698341313    2.74669845574939
F         0.64833759409842    3.45391291509034    3.56450488326942
F        -0.38188842349630    4.80726819261100    2.25396047104530
F         1.17122244649654    5.52754958368470    3.54238668936876
C         2.95777050663326    5.08944224003615    1.58496364887166
C         3.89665613700647    4.91697556880519    0.58651133371237
C         3.72660587575700    3.91204326981737   -0.34913719253274
C         2.62287684641207    3.08518814166942   -0.27921835407072
N         0.92702778380383    0.93162044601343    0.48553456174673
C         1.87443416245178    0.38919878014752    1.31454736667771
C         2.29292000504822   -0.99817389885072    1.07962350780766
C         2.76501270578872   -1.81986875811282    2.06619395431761
C         3.19922132024334   -3.07709446108935    1.59527545438297
C         3.75363404246137   -4.17833895272332    2.44410212650011
C         3.76830817096620   -5.49674790831561    1.67136972671228
C         4.37291510123071   -5.29408927802458    0.28377165433077
C         3.47267405932393   -4.38795310016751   -0.55861350320535
C         3.09018062309822   -3.19154118612478    0.24005591814643
S         2.42335888253177   -1.76565089439985   -0.47524873187922
O         2.37939769295878    1.05192005507076    2.19925615106531
C        -0.04060830930208    0.20899956636112   -0.30255023375875
C        -0.87170437980840   -0.72272672882614    0.60748575922692
O        -0.58505910622500   -2.00537094934915    0.41389791095951
O        -1.65216530360247   -0.32859794028405    1.42831486931300
N        -0.88428218173398    1.23732104603104   -0.85685059864344
C        -2.02101495263136    0.99397117724739   -1.56349162703339
C        -2.30407129389875   -0.44578068545899   -1.78744056890725
C        -3.40332976894759   -1.11992550239725   -1.34859880061832
C        -3.42280237616947   -2.47801160971698   -1.74988529658271
C        -2.34563291839354   -2.81244957219332   -2.51329549951708
C        -2.09158176902539   -4.15328289612721   -3.10793816956574
C        -2.95919757084085   -5.19420661859411   -2.39735225291604
C        -4.40002811921842   -4.69939037360477   -2.29242415190069
C        -4.48079593837545   -3.47253760883659   -1.38457963306814
S        -1.28370853501759   -1.46493809351873   -2.75525833490438
O        -2.75403819091680    1.87353745606888   -1.95661163452680
H        -3.07891426228813    6.47331575509655   -0.34008879662410
H        -4.69290083300447    5.47441167097008    1.22224403517396
H        -4.35865665982432    3.15415913470206    2.01486310954805
H        -2.43650199178025    1.85447606061081    1.22988055846480
H         0.06125080763893    3.04152122264246   -1.26987934822233
H        -0.05106541571262    2.34479219971435    1.68110971983867
H         3.08297323862542    5.87425892925114    2.31434335320932
H         4.75569017872506    5.56777684226501    0.54028119487666
H         4.45261175830696    3.77237682576082   -1.13554941523862
H         2.49469176799001    2.29860318303296   -1.00823308697353
H         2.78465239242053   -1.51931845484328    3.09833529423927
H         4.77267106832356   -3.91369305357941    2.74247614800888
H         3.16245971013865   -4.27512939095846    3.35721529851040
H         2.74699823216111   -5.86915547573058    1.56590838690569
H         4.34215787359944   -6.24080764145182    2.22569185978321
H         4.49761173856332   -6.25429567943278   -0.21870956490371
H         5.35777291704163   -4.83437353885823    0.38511136963586
H         3.97940997808528   -4.08551885330443   -1.47763639521328
H         2.56799863483932   -4.93234384863174   -0.85065901238046
H         0.44636042838680   -0.38866197053021   -1.08542987715204
H        -1.09790757513629   -2.57199956391668    1.01398660691249
H        -4.16300770697846   -0.66040549690406   -0.74189292975388
H        -1.03287843570779   -4.40947785757770   -3.02758393578401
H        -2.34118323224400   -4.13086464092147   -4.17380170690300
H        -2.56555391465496   -5.37240452759870   -1.39444747407979
H        -2.92319460468367   -6.13604468136862   -2.94634933023832
H        -5.04144351437128   -5.49007694812735   -1.89964776573615
H        -4.76027994539977   -4.43705791994463   -3.28885371356493
H        -4.34258290701134   -3.77440075620562   -0.34080952456802
H        -5.46525290266619   -3.00675448857020   -1.45985281972777
