54
 energy: -101.646107777428 gnorm: 0.000817972098 xtb: 6.3.3 (4ae9cef)
C        -2.33588319194188   -1.06470596622827   -1.92455473992819
C        -2.89698622626204   -1.74928845502665   -2.98973340734656
C        -2.79187384476719   -3.12548633507074   -3.06769680477272
C        -2.13148368531890   -3.81966329056829   -2.06704929075887
C        -1.57221129628080   -3.13734529770265   -1.00359030276589
C        -1.66009695662487   -1.75083695923112   -0.93031939169804
C        -1.03006410238406   -1.06406147767878    0.26155704777726
C         0.47745360037615   -1.36317658252719    0.38266591794992
C         0.88989730480580   -1.77636464290720    1.77394963017807
C         0.66070066321126   -0.93083784874730    2.85301758451042
C         1.03821106606928   -1.30739614586292    4.12883081548394
C         1.64842278280479   -2.53276902082908    4.33797110179035
C         1.88287639274685   -3.37697214291145    3.26665361206231
C         1.50710499690519   -2.99969125599801    1.98916213364562
N         1.11216447506140   -0.10422463053950    0.01163966711533
C         2.41616882355207   -0.06360898437740   -0.35448995388030
C         2.90364891254120    1.30419295725110   -0.71396163850043
C         3.10373003716412    2.32017337870692    0.16977232985956
S         3.72970256977286    3.73298972505049   -0.57746074542599
C         3.73827881264029    2.96756257709165   -2.10898061992415
C         3.28739422908876    1.68823568502758   -2.02720088378818
Br        3.12806918932181    0.55281864033120   -3.52503323071551
O         3.12433216505716   -1.04338220823782   -0.37329390375083
C         0.18340040243753    0.99151010314950   -0.06868846235769
C         0.20231887874227    1.64247830298353   -1.47364240971973
O         0.06035713059660    0.74655651096579   -2.42682296274570
O         0.32290731889282    2.82670442630901   -1.63922376688806
N        -1.09214580429367    0.39119009759298    0.23094289393605
C        -2.16626045133161    1.05574268630880    0.73354707041110
C        -2.00838940142943    2.54626829195775    0.75411681906508
C        -1.58317622346129    3.25199516992366    1.83688969698363
S        -1.53957544226581    4.94617626769955    1.54994194011829
C        -2.11544584082770    4.72692723399524   -0.04793530655341
C        -2.32124333339852    3.41372849165738   -0.32705575084814
Br       -2.97670412948831    2.81945695820435   -1.98872285698268
O        -3.15757179990874    0.49164786582842    1.13244699258997
H        -2.44276908016796    0.00547135722385   -1.87256341157896
H        -3.42083463025099   -1.19860978644663   -3.75630872905527
H        -3.22867395709406   -3.65819886980008   -3.89898587875349
H        -2.05543662397220   -4.89582043748980   -2.11336753106437
H        -1.07051284553106   -3.68283820082638   -0.21688370060334
H        -1.56632383167557   -1.39424938521768    1.16172399508234
H         0.79381099211751   -2.12713514941201   -0.33535480823832
H         0.18073462822900    0.02543904858732    2.69647248443552
H         0.85527474389895   -0.64435903578280    4.96159108587274
H         1.94213576381009   -2.82634364695463    5.33456989909146
H         2.36290957222690   -4.33089656553840    3.42492992795054
H         1.70205731094508   -3.65262377201024    1.15183262368790
H         2.93684852801759    2.31026770302930    1.22858945439803
H         4.06857336757973    3.49246402774920   -2.98230080301535
H         0.42050459226251    1.79375077748984    0.65225175731078
H         0.05129292788919    1.14099878541391   -3.31582962828093
H        -1.29986197943061    2.86967807040044    2.79760570779111
H        -2.26775650065562    5.56646395399605   -0.69562126915292
