76
 energy: -127.547381856755 gnorm: 0.000423022662 xtb: 6.3.3 (4ae9cef)
C         0.98647749032060   -2.74451148146655    3.00699054661651
O         2.16535029349680   -2.71934395444251    2.34253091452868
C         3.36745919447998   -2.79235976095788    3.06659054257908
C         0.86011522478439   -2.87018223547088    4.38494607890838
C        -0.39418159604462   -2.88641365014211    4.97068308007714
C        -1.52793601698278   -2.78064849572493    4.19046316101127
C        -1.40788802393534   -2.65344856342535    2.81447596237404
C        -0.16619642290050   -2.63349180994385    2.20459120503318
C         0.06241212307552   -2.44490043215339    0.72107136933753
C        -1.20097887760928   -2.32030451402901   -0.14725933415741
C        -0.97472550384997   -2.86443630457359   -1.53961135775909
C        -1.29255970776419   -4.19761700592478   -1.75361559829923
C        -1.10581834345025   -4.80267205641162   -2.98219421283066
C        -0.60319894471425   -4.05494404251475   -4.02845777189811
C        -0.28058714929064   -2.72343860249477   -3.83980112964319
C        -0.44560332263852   -2.11546793530190   -2.59919897428861
O        -0.11715410877990   -0.80832192670162   -2.35862931694086
C         0.37130034772138   -0.04024271982800   -3.43099816922889
N        -1.47206323946202   -0.89057336762566   -0.09967758995361
C        -2.68043606606473   -0.40223830829007   -0.47196377013594
C        -2.84449176888715    1.08042822106508   -0.39636157060048
C        -3.89180394318937    1.60708545455087    0.35503523778412
C        -4.08895596608459    2.96794939894696    0.42215223230486
C        -3.25676855975991    3.84028028057683   -0.28346314110060
O        -3.53398265385279    5.16520391319887   -0.14516093893153
C        -2.74950365856395    6.09706147501985   -0.84859012364044
C        -2.23304221761727    3.31588826531437   -1.06520051569463
C        -2.03476055432173    1.94604477410402   -1.11563346562989
O        -3.57707986438053   -1.13866910134307   -0.83459672206143
C        -0.37028580805770   -0.18680160808213    0.52436554181668
C        -0.68837972167606    0.22325555813019    1.97760610013444
O        -1.98535246379651    0.19857245778122    2.25488520334391
O         0.14776405927840    0.57155509610733    2.76685366197361
N         0.69917357347016   -1.14581939188899    0.51408544428208
C         1.87531841757036   -1.06029472509689   -0.18325413395206
C         2.40427739946101    0.30527554460815   -0.43423005959055
C         2.28791972018337    1.35267694284484    0.47160689086957
C         2.83192085744959    2.59480173902337    0.19018354079672
C         3.50606830732019    2.81013252567915   -1.00776317614807
O         4.05863956693032    3.99151875010707   -1.39174280415072
C         3.98573807204599    5.08926258340860   -0.51414586732992
C         3.65576996977259    1.74791015353938   -1.90421210410132
C         3.12521706665962    0.51337115101891   -1.61106747839176
O         2.47506043999103   -2.05261741437041   -0.54299920306335
H         3.45282529537693   -3.73753335753110    3.61320798473987
H         4.15529149208143   -2.73570345881523    2.31724685982101
H         3.46683588900405   -1.95464967308380    3.76405443617802
H         1.73480100427062   -2.95177122304614    5.01010633661003
H        -0.47778517437238   -2.98072809737232    6.04316159966967
H        -2.50730139881825   -2.79352325502479    4.64411206955327
H        -2.30788403630599   -2.55601825188976    2.22752634367241
H         0.74875499706669   -3.21261946531294    0.35128114062850
H        -2.05433291489964   -2.86167007801514    0.26983174959070
H        -1.69731418220018   -4.77028342208750   -0.93186704775971
H        -1.35824805214506   -5.84237821441240   -3.12066274709457
H        -0.45921751685103   -4.50124698801284   -5.00105423435309
H         0.10588381750236   -2.16397633537340   -4.67620484885716
H         0.62882053737813    0.93306362237466   -3.01321245869538
H        -0.38856809295387    0.08515942310390   -4.21005069072786
H         1.27314414580945   -0.47949429142425   -3.86644806600186
H        -4.54463616995420    0.93370220808562    0.88806376491063
H        -4.89035136384903    3.38948428034638    1.00807400196934
H        -3.15169795831311    7.07527738948384   -0.58993649852718
H        -2.82406270272162    5.95094184637606   -1.93088112242575
H        -1.69818171641624    6.04780343013670   -0.54636712861322
H        -1.58877412204358    3.95922258781383   -1.64419953563711
H        -1.25623991457727    1.54947732566460   -1.74924700500794
H        -0.09219724529824    0.72337640258692   -0.01853857801440
H        -2.14661768095272    0.45709497717685    3.17728604326282
H         1.80179074304042    1.19713270082649    1.42190953904275
H         2.72968320672576    3.38270544117324    0.91968764009316
H         4.49555336280535    5.90633438337159   -1.02200314908416
H         4.49217417828787    4.88032471667188    0.43335245898561
H         2.94850821769630    5.37828505454585   -0.31552434591939
H         4.20409808892903    1.92152149175455   -2.81674650661853
H         3.26299764635202   -0.31782604691274   -2.28524918963461
