19
 energy: -28.551171829765 gnorm: 0.000367221572 xtb: 6.3.3 (4ae9cef)
C        -2.98240849437795    1.16231642348187   -0.52329208952859
C        -2.15637787754359    0.48866527431887    0.25348003777004
C        -1.39972832718187   -0.73604122454339   -0.17157797052008
C         0.07904638742796   -0.49602770754899   -0.02267380470562
C         0.76695404037759    0.22510072409233   -0.99164677560562
C         2.11800454058552    0.48546630814333   -0.85839334000929
C         2.77626197923983    0.01729484975706    0.26403596647792
F         4.09736925724694    0.26520030298094    0.40246029794644
C         2.11968415901225   -0.69736248842290    1.24776159378394
C         0.76745204268810   -0.94761770648872    1.09577033975107
H        -3.50342598089283    2.03869299093734   -0.17786102823487
H        -3.18119932338099    0.85978910050945   -1.53860174020914
H        -1.96857660214309    0.81236702364314    1.26895428308844
H        -1.64028008371268   -0.97385018716144   -1.20913972920508
H        -1.69846201261441   -1.57764228990337    0.45869320401069
H         0.23730754962831    0.58658812407233   -1.86047059653186
H         2.66122916452052    1.04113410897228   -1.60634115195643
H         2.66326867456465   -1.04781988411709    2.11094333296129
H         0.24388290655573   -1.50625374272304    1.85789717071678
