76
 energy: -127.540034424582 gnorm: 0.000252318791 xtb: 6.3.3 (4ae9cef)
C        -2.19287144580701   -2.98493682261000    1.86511184640260
O        -1.48887152942892   -2.92550567253309    3.03320827516343
C        -1.82206129070382   -3.81787119324686    4.06617015273351
C        -3.19336913731577   -3.91034864693041    1.59740075136967
C        -3.83218952029945   -3.91022487913609    0.36849840587385
C        -3.47774792820076   -2.99954740526597   -0.60760134270905
C        -2.48083505150269   -2.07508390488853   -0.34736891197509
C        -1.84617183522892   -2.04954204631696    0.88157013478069
C        -0.74262614027381   -1.06745433989955    1.15942345895355
C         0.56143747905624   -1.47168987342117    0.44711012606877
C         1.47131923804625   -2.22080175900235    1.38001643486406
C         2.35748561100039   -1.57270517844839    2.21922330190554
C         3.15016516329638   -2.28588531468840    3.10280530764333
C         3.04218170100974   -3.66152770444137    3.15299082694934
C         2.14793834270558   -4.32795244308806    2.33141734141441
C         1.35348126341950   -3.61704473101518    1.44136789320346
O         0.43553964296804   -4.17670275861455    0.60526769827977
C         0.24057154897662   -5.56747673714379    0.64589654460816
N         1.11394399584314   -0.20524892369638   -0.01230730185024
C         2.28497107726450   -0.17325664722286   -0.71315088503310
C         2.65298002673651    1.18540622616954   -1.22350435295049
C         2.88259841498505    2.24263481710257   -0.35228836211837
C         3.21946214053529    3.48581495304523   -0.86549252403274
C         3.31732134680594    3.67538595842041   -2.22821081074338
C         3.10532424669624    2.61105004677923   -3.10906567792377
O         3.23366810101708    2.89696414473334   -4.42604260162700
C         3.00223426241273    1.86968419864304   -5.36362775044897
C         2.78261496103366    1.35908293832001   -2.59519450588069
O         2.97032995151038   -1.15594211982901   -0.88252026067582
C         0.10293915789210    0.82580598590968   -0.07193508463940
C        -0.28184818046650    1.11629192203679   -1.54912486496992
O        -0.07528050433021    2.36091098339992   -1.98807163842353
O        -0.71795095139716    0.26420755518230   -2.26471042182733
N        -1.01780237613103    0.26662421914411    0.64221688178621
C        -2.19789008585176    0.90004525871050    0.87037199862701
C        -2.32481581996214    2.21389948167527    0.15745689124933
C        -1.62347391181700    3.33253980031486    0.57515090439209
C        -1.73647171909680    4.53758343687697   -0.12049586561474
O        -0.96581713734704    5.55867267449352    0.34807874392531
C        -1.05915777581821    6.81575709673281   -0.28052025762484
C        -2.57804386429518    4.61057780759683   -1.22529316294211
C        -3.29620861333968    3.49298662181301   -1.61751462652719
C        -3.17725030814166    2.29606896772080   -0.93827716571765
O        -3.07360908314500    0.42688268823699    1.55866691254845
H        -2.85517474046089   -3.68049949692432    4.40068078586842
H        -1.14313052154376   -3.58401302043780    4.88517751745877
H        -1.67349366195368   -4.86022865875402    3.76402959256208
H        -3.48635750361173   -4.63653471049895    2.33942812195044
H        -4.61065947163637   -4.63498501507901    0.17943557360897
H        -3.97184613717676   -3.00713357169669   -1.56695280634333
H        -2.19040395860020   -1.36353373355366   -1.10678491862995
H        -0.58367748433240   -1.00799907244147    2.24332232477875
H         0.33691208279719   -2.10889480611914   -0.41742482568478
H         2.43479533236730   -0.49650807237166    2.17466309815176
H         3.84504231437804   -1.76872944501827    3.74648321732672
H         3.65501833865611   -4.22989308343797    3.83700131058270
H         2.08115645951219   -5.40285132821091    2.39189045152887
H        -0.07417238725246   -5.90059745262011    1.64042005229805
H         1.14280809793645   -6.11187828318353    0.34890625508390
H        -0.55667655380140   -5.76978439013793   -0.06793561418814
H         2.82594577704514    2.08947059004971    0.71538049463241
H         3.40595950615670    4.31154664735086   -0.19517451888491
H         3.57150979139570    4.63813357142221   -2.64190957330412
H         3.71477898542297    1.04848138501862   -5.24129706854926
H         1.98147337345288    1.48349664146457   -5.28683446925158
H         3.14436735494615    2.32807394834339   -6.34092706866022
H         2.61721680573234    0.50829908789600   -3.23593804313019
H         0.46220904417278    1.75016206605487    0.41159094626691
H         0.26579023755848    2.96679756044719   -1.31423040756306
H        -0.99275206423093    3.30480497918116    1.45140885292079
H        -0.74333572801408    6.76483573641491   -1.32730996242747
H        -2.07493362662571    7.21772402900985   -0.22398815814907
H        -0.38276521983785    7.46871238550546    0.26827562833169
H        -2.68609163173356    5.52823704594635   -1.78059257811602
H        -3.95369151239886    3.56250487883338   -2.47045529757776
H        -3.73196576165033    1.42465690589366   -1.24744036941425
