78
 energy: -142.973676146938 gnorm: 0.000247733542 xtb: 6.3.3 (4ae9cef)
C        -0.72970209717275   -2.32521220585403   -1.87947556792601
C         0.01476505514281   -1.82659298745200   -3.09482957164938
F         1.12658392212272   -1.13442601858376   -2.79494139875868
F         0.42897760809062   -2.83207094782660   -3.88040297919845
F        -0.72691485753143   -1.03464747563214   -3.88528123799607
C        -1.09979374924285   -3.66773301310403   -1.89835868908136
C        -1.78119410905356   -4.23543961603653   -0.84017936637283
C        -2.08651880435280   -3.46027752012290    0.26318263144960
C        -1.73369017345422   -2.12585437795547    0.27936435569796
C        -1.07301041310906   -1.51921967809650   -0.78709358367117
C        -0.79839818917456   -0.03555042151424   -0.63059174831314
C         0.68795427787224    0.27368444238541   -0.32330437990079
C         1.00632278359948    0.58374723400568    1.12790487234572
C         0.41443501948160    1.55466568037854    1.94058647205987
C        -0.80487306576907    2.37305527320454    1.60391070077013
F        -0.79213352717249    3.57459284300034    2.18527912287636
F        -1.91517006022534    1.74272588747216    2.09268062996331
F        -1.07178284066134    2.57582662390298    0.31745046417491
C         0.87455561871511    1.75705389193667    3.24166908231198
C         1.91234371710807    1.00993985493994    3.75849291999732
C         2.48081661263534    0.01852608142834    2.97968976746522
C         2.02591785534552   -0.18268590082369    1.69299655218289
N         1.03810697421353    1.31747290212711   -1.26718220273535
C         2.30750993033677    1.73936033302453   -1.57599047695780
C         3.27311796636041    1.68937771248961   -0.44069758703338
C         3.15816256809296    2.66849688666093    0.53967812535432
C         4.06962201767332    2.70043206362897    1.57861211237824
C         5.08960514363582    1.76714716256586    1.63703006231890
C         5.22614037080791    0.79743687861486    0.65122808354150
C         6.33292763937121   -0.21574507199900    0.73222501129333
C         5.98793572900044   -1.32620539895299    1.72623711779166
C         4.30832980401170    0.76849365581935   -0.39044250181396
O         2.57616033755416    2.18495169423930   -2.66662227903061
C        -0.00546196551148    1.60427218420391   -2.21701038039478
C        -0.23897522052880    3.15874917905071   -2.21296616048149
O        -1.14419048586705    3.59548492812214   -3.05278040417732
O         0.42718131864035    3.86592261756035   -1.51517148187272
N        -1.11958261251713    0.77493697024997   -1.79354538829578
C        -2.30473474807731    0.74808009641967   -2.44064276257574
C        -3.33867619497867   -0.15961174453238   -1.86518548741426
C        -3.96239975912970    0.17896018002948   -0.67166127407645
C        -4.95252350162831   -0.63364178393698   -0.13581624825784
C        -5.60978025423214   -0.26904821711962    1.16415259278111
C        -4.73392900176344   -0.66743105830254    2.35372970532121
C        -5.29670883453379   -1.79871715171960   -0.80955487744164
C        -4.69878570258165   -2.12386037911185   -2.01431931731091
C        -3.73018822344723   -1.29923717915050   -2.55593255777097
O        -2.51995924980177    1.43171236085083   -3.43231224895076
H        -0.84861911370896   -4.27407658572904   -2.75433527099008
H        -2.06473207098122   -5.27495134422661   -0.88033992905072
H        -2.60642533555541   -3.88826584054597    1.10588022690176
H        -1.99014225419583   -1.52589496045150    1.13904435303952
H        -1.42287010760431    0.28406832977928    0.20915171186309
H         1.28389615572186   -0.61997068108956   -0.56030222884970
H         0.40646012296386    2.51507842730006    3.85064964959042
H         2.26145939074663    1.19326391801493    4.76204506466595
H         3.27717112877055   -0.59583692604083    3.36862172153662
H         2.48530320006560   -0.95367008428799    1.09340514677369
H         2.37145983501053    3.40351158297346    0.46220650537599
H         3.98965885742527    3.46139100706124    2.34062035561881
H         5.80356949577352    1.80279753755238    2.44768198953615
H         6.50585623159967   -0.65313002587011   -0.25222244354006
H         7.25418467091537    0.27469745208249    1.05311793153814
H         5.83225896386271   -0.91063434652473    2.71935763570545
H         6.79546718172684   -2.05258073627238    1.77889433472358
H         5.07972916034244   -1.84156744252174    1.42079222497981
H         4.40197579021655    0.03119944974850   -1.17524721459979
H         0.30719139849621    1.34680098701377   -3.24572328731510
H        -1.68146044885339    2.85518713916809   -3.45515350270253
H        -3.69357469212686    1.09541210655278   -0.16580101963959
H        -5.78475319798865    0.80762831206441    1.19727580132789
H        -6.57377200282513   -0.77477188184210    1.24116220468536
H        -3.79906134714256   -0.11254788453171    2.34150436461618
H        -4.51196109672978   -1.73230537574595    2.32141717869079
H        -5.24659639613573   -0.44885266775666    3.28707459786877
H        -6.05761712693285   -2.44555289487109   -0.39722336534898
H        -4.99675980318293   -3.01816713118713   -2.54068629115296
H        -3.27568721797031   -1.53015991027494   -3.50667466840655
