68
 energy: -140.659985713899 gnorm: 0.000336048139 xtb: 6.3.3 (4ae9cef)
C         0.87380297532761   -2.16692740979154    1.89678443170391
C         0.39083752032174   -1.20463106292950    2.95133210304796
F         0.12651961520127   -1.82103155987577    4.11512279012788
F        -0.73316267869119   -0.55131355213873    2.63271284456780
F         1.30551739716895   -0.25892204115017    3.25415715501716
C         1.35258861752164   -3.39230312991195    2.35279330647710
C         1.81884104497087   -4.34496800163837    1.46914960062239
C         1.79966057454933   -4.08069330752133    0.11169447481763
C         1.34321979100401   -2.85919990267287   -0.34073990637565
C         0.88731594049281   -1.87295989513477    0.53028556878373
C         0.45613394418825   -0.57086251804179   -0.10085593485737
C        -1.07391892057335   -0.40501748721363   -0.24268199194856
C        -1.51023271521240   -0.66630309372744   -1.66490636534576
C        -2.26926069332790   -1.77538052451866   -2.03799013296164
C        -2.69772557641978   -2.79976718746591   -1.02406684613595
F        -3.49967483125446   -2.32330699238556   -0.06361750432266
F        -1.63715882632299   -3.34915108198334   -0.37721059826842
F        -3.34797321378349   -3.83595501642994   -1.57188477855591
C        -2.63942537208424   -1.95926552146307   -3.36577490183639
C        -2.25112117793023   -1.04811804596529   -4.32889343277990
C        -1.48159275141440    0.04592064455143   -3.96990418929493
C        -1.11041483105915    0.23001261519558   -2.65220509677325
N        -1.30946527648508    0.98406970382958    0.12666394687182
C        -2.49802123200103    1.57676738268041   -0.15339734779891
C        -2.61489503900394    2.99513810701261    0.27763017216981
C        -2.87817460879477    4.00731316974360   -0.59204723930683
S        -3.01588770395344    5.52299028863198    0.19197788303354
C        -2.75722429150395    4.79721178215586    1.73317038784682
C        -2.55634750130768    3.45357820454637    1.63383951587091
O        -2.33049024371054    2.56893094239049    2.63210906591957
C        -2.27931730854006    3.08330403700252    3.94303970598072
O        -3.38338063078134    0.99586461198084   -0.74468983413050
C        -0.16615449220509    1.60578351890463    0.74079649305053
C         0.25322705171130    2.88743609506839   -0.00964978521824
O         0.25788607904539    3.95403784137376    0.77097082054599
O         0.50464139880587    2.89961728943763   -1.18406011229481
N         0.88525533349502    0.61673134469876    0.61076280967226
C         2.17223633400766    1.00949747868384    0.78560621401242
C         3.19709358984882   -0.05173168618099    0.57593241505886
C         3.93198643302763   -0.58742938826977    1.58550451057886
S         5.06151184022263   -1.74770999151122    1.02870933403817
C         4.57964390864815   -1.49445906523644   -0.60419804578376
C         3.58360645229699   -0.57025094320213   -0.70098705903736
O         2.96494406923028   -0.12981065107697   -1.82622686229165
C         3.49935865109925   -0.55588052197321   -3.05786841813246
O         2.44256079273746    2.13851928835093    1.13800024850314
H         1.35202452356867   -3.60032884406546    3.41131938725812
H         2.18788861220219   -5.28732504917811    1.84112124280552
H         2.14598912830550   -4.82075769627688   -0.59280115441591
H         1.33445814712304   -2.65402605535935   -1.40080245240803
H         0.89173442587653   -0.53984799615739   -1.10881515145429
H        -1.61210519235947   -1.04790862678017    0.45949984574917
H        -3.23676960582452   -2.81507283362236   -3.63912701366990
H        -2.55187277738486   -1.19256983653051   -5.35487386234947
H        -1.17354041931141    0.76165921246548   -4.71680416025837
H        -0.51918682455006    1.09155093654693   -2.37587409288591
H        -2.97944537543270    3.93691921891351   -1.65623298374923
H        -2.76875781003418    5.41596211362468    2.60622318988234
H        -3.22691753733154    3.55431215533588    4.22094616136601
H        -1.46720995783442    3.80950417317053    4.04847345189396
H        -2.09376394147748    2.22760584734520    4.58919533506184
H        -0.33457195607394    1.85155682692280    1.79928880729202
H         0.60380649605453    4.72995401528649    0.30017551468749
H         3.85719106721095   -0.36507516089227    2.63029595936454
H         5.06994181096924   -2.04142523929224   -1.38260155296491
H         4.55287545792556   -0.27698901761582   -3.14855368261958
H         3.40206968927080   -1.63987248891583   -3.17986545215066
H         2.91878960055218   -0.04720242174559   -3.82507675133035
