90
 energy: -136.801298794961 gnorm: 0.000816432994 xtb: 6.3.3 (4ae9cef)
C         4.57673560942307   -1.45359879272640    1.98911362544336
C         4.16909782706489   -0.50425926269090    2.88109068592461
C         2.98604608827035    0.20733374784127    2.64027412246306
C         2.22194789842868   -0.06162660698280    1.53860844122417
C         2.59436643840211   -1.05529358072005    0.60559643232578
C         3.82027817907308   -1.74124392495443    0.83309491125095
C         4.28183375475065   -2.68607676497649   -0.10517739024109
C         3.57164852409178   -2.93145719612342   -1.24362241143586
C         2.35034592251685   -2.28358886699818   -1.45553452517548
C         1.83575908917959   -1.38550859087016   -0.55211746304319
C         0.46144637328284   -0.83062811489227   -0.81915465377651
C        -0.60396433441986   -1.21951698972526    0.23059049761310
C        -1.13436283194565   -2.62763819290430    0.26044454218197
C        -0.77403110561795   -3.56680279002042   -0.66882564242606
C        -1.24684621170342   -4.88435986534770   -0.59522008024301
C        -2.08646262922715   -5.26099368310355    0.41061399764979
C        -2.48354169120544   -4.33031103460727    1.39269805143308
C        -1.99706813145495   -2.99753366683229    1.33291911448865
C        -2.41609046121197   -2.09658388124725    2.33532005812399
C        -3.27130794711453   -2.48636335162624    3.32866655672737
C        -3.75300422640654   -3.80115447541700    3.37990421302528
C        -3.36149315146148   -4.70261076060793    2.43177399137297
N        -1.62744023194949   -0.18603765221641    0.02457389287310
C        -2.85826937051595   -0.45512832736206   -0.53108692974060
C        -3.80293427644380    0.69300963333205   -0.48809831516624
C        -4.64040569317094    0.93039654201351   -1.57158552065613
C        -5.54325617035887    1.97528563945260   -1.51723975779707
C        -5.63379455929770    2.76199403439972   -0.38174759318649
C        -4.83438261275270    2.50949969060171    0.72760816690859
C        -4.91660223563969    3.36220164037935    1.96925268131785
C        -4.32458314824787    4.74537011349819    1.68422544091474
C        -6.35068738615833    3.47509509905887    2.48874877565914
C        -3.91775912244422    1.47068029617076    0.65852786983587
O        -3.18279482083133   -1.55186134698793   -0.92639314216878
C        -0.90794805026050    1.04977898841536   -0.16860111980668
C        -1.54791102385293    2.04042333423402   -1.15445474502719
O        -1.89624360634774    3.17612770562992   -0.56636019458535
O        -1.70255466956687    1.79906876869881   -2.31907283723543
N         0.36293909179408    0.62116129472538   -0.75711255979312
C         1.13889859054002    1.54803503830047   -1.36056622170426
C         2.32305280804312    1.02528720101066   -2.09872037662828
C         3.60400435334399    1.24083881669793   -1.61537388757813
C         4.71247864780874    0.79496220163015   -2.32370873647330
C         6.11160126457555    1.05177664478350   -1.82158819954328
C         6.34234821824746    0.38203068651294   -0.46679375972893
C         6.38233351122757    2.55566767396128   -1.73912208371242
C         4.50668717716779    0.12948846224386   -3.52510490674822
C         3.23032682760363   -0.06799484831900   -4.02275985286518
C         2.13198642414785    0.38321461378857   -3.31585319068748
O         0.85756284351604    2.73147351521486   -1.27968861370863
H         5.49831539132752   -1.99524732244445    2.14673952818249
H         4.75593104132736   -0.28589679738538    3.76078094867884
H         2.68155772692283    0.98014442076115    3.33094056929219
H         1.33626795965281    0.52731980065825    1.37104490340580
H         5.21207174786398   -3.20025731482995    0.08973550491518
H         3.93377109208211   -3.63140741864262   -1.98121620920990
H         1.80641702864927   -2.50224320615065   -2.36297766589186
H         0.12231106177734   -1.16377276216446   -1.80960748286004
H        -0.16622381886559   -1.02265799997114    1.22133214134889
H        -0.12330846807933   -3.30738158594903   -1.48609492414711
H        -0.94205335600808   -5.59266709623238   -1.35141189778612
H        -2.46516269791656   -6.27132292897650    0.46837009384799
H        -2.06878234420443   -1.07527548812474    2.31891861426641
H        -3.58359006131733   -1.77757774486783    4.08220550130331
H        -4.43071942310048   -4.09143399032085    4.16934214272240
H        -3.72420075533289   -5.72043498438635    2.45836962372799
H        -4.55762459078187    0.30614666287188   -2.44717124332029
H        -6.18232300807462    2.17820711228872   -2.36373548558752
H        -6.34207747319603    3.57655091712394   -0.35978744435392
H        -4.30962086665969    2.88616772760286    2.74687369222354
H        -3.29785851317321    4.65052997305720    1.33741042738077
H        -4.33528776340720    5.35419944190956    2.58551100555370
H        -4.90253121968233    5.25611023062435    0.91780586627400
H        -6.97674574094752    4.02760956690584    1.79289575871502
H        -6.78284488907228    2.48665199367695    2.63154172140255
H        -6.36075356616307    3.99911058699202    3.44210105999477
H        -3.29064488890431    1.25573288219211    1.51200095168142
H        -0.73307362574286    1.57700581230421    0.78461727993914
H        -2.21034440506197    3.81494108291044   -1.22609737644724
H         3.72603792388202    1.76097360081636   -0.67722232982214
H         6.81595400600046    0.61730293748857   -2.54010205523424
H         6.17017876398241   -0.68886138118978   -0.54287267911201
H         5.66685997449216    0.78178170547729    0.28526485090966
H         7.36481125176989    0.54926240602186   -0.13523609227112
H         7.41291090653227    2.73588581891528   -1.44115762623262
H         5.72624976356177    3.02636143888697   -1.01170976203424
H         6.21372158106039    3.02453637061420   -2.70602229002029
H         5.35827738271558   -0.22628916589819   -4.08778323190362
H         3.09304381577758   -0.56929140063353   -4.96961407195268
H         1.13309629343894    0.25746128380208   -3.70694067543971
