80
 energy: -132.273753881147 gnorm: 0.000515626121 xtb: 6.3.3 (4ae9cef)
C        -0.81475806892353   -2.46919264971444    2.47838244434441
C        -1.15515049352042   -3.79424016798711    2.67717495590838
C        -1.59508212684050   -4.22172506059770    3.91764828680254
C        -1.69583021451134   -3.31627877269285    4.95929152880244
C        -1.35672919410656   -1.99030377231542    4.76100861537473
C        -0.91432501071336   -1.55547466837426    3.51998974035196
C        -0.49874801151647   -0.11603891583521    3.33355876115397
C         1.05148917530832   -0.00048013769474    3.30886124537651
C         1.59596894313172    1.23867704250272    3.98284863514872
C         2.59550156585547    1.99073048416973    3.37890597881255
C         3.09249044731896    3.12310630620783    3.99974183022776
C         2.60834672662814    3.50933459736240    5.23679602470296
C         1.63814431146192    2.74423699548426    5.86107799234124
C         1.13786768221591    1.61395683323678    5.24038987346411
N         1.34779585478704   -0.03542639552925    1.88552435951116
C         2.03715741355131   -1.10104741873995    1.35314952034214
C         1.94509128698623   -1.23971342577802   -0.10935937056603
C         1.75170097455417   -2.43228636834924   -0.76824156839962
C         1.66730507339343   -3.82088026521982   -0.25419671050683
O         1.59371552146029   -2.20851169259033   -2.08266834774999
C         1.71128144435253   -0.87118469240654   -2.30412492854120
C         1.55349592062786   -0.35761304280902   -3.65006865942313
C         1.20625799391688   -1.21540352372900   -4.69415563063385
C         1.05500259409452   -0.72791382247603   -5.97718404470517
C         1.25311805546214    0.61720982230093   -6.23915527723486
C         1.59520676483466    1.47594759331944   -5.20724309892975
C         1.73901876980189    0.99903141132063   -3.92003381108691
C         1.93380211519905   -0.23034828938532   -1.11456288167622
O         2.64989436803791   -1.86829323234050    2.06675752340793
C         0.28554470265794    0.66648699666161    1.21697420384107
C         0.58629043301896    2.18910852225604    1.13243392729456
O        -0.19855932660447    2.95910345693005    1.87482678007834
O         1.43924951572350    2.62487102217359    0.41539261150472
N        -0.89337958848644    0.40962630826253    2.02119549325752
C        -2.13007311769440    0.09702847593145    1.50124425499727
C        -2.24830501345123    0.21792491184785    0.03513263240116
C        -2.78675174614028   -0.76229759484451   -0.76590112517205
C        -3.38436788499696   -2.07461864579449   -0.41962461773630
O        -2.67629477524060   -0.41122278357974   -2.05642374537558
C        -2.09240213342018    0.81275575808119   -2.11784176085429
C        -1.86806968816824    1.42600442501400   -3.41199521272909
C        -2.18724669781135    0.73270922319298   -4.57994676687177
C        -1.99986113366771    1.32109760229930   -5.81462242109117
C        -1.49438845954819    2.60712214627603   -5.90422815255128
C        -1.16391642126865    3.29806752762458   -4.74981875336117
C        -1.34382997863160    2.71518063919258   -3.51131910316493
C        -1.80705985050674    1.24280534511528   -0.84859249436944
O        -3.03484949506708   -0.27170230159005    2.21976487474510
H        -0.48064343602700   -2.15035899842447    1.50062692585924
H        -1.07690217247419   -4.49526580495068    1.85942758523722
H        -1.86260993203878   -5.25651190577031    4.07003070304552
H        -2.04376252693632   -3.64151925147016    5.92827742984704
H        -1.44318205715535   -1.28546925589941    5.57522396043948
H        -0.94465467757369    0.49659211886440    4.12251425920266
H         1.51183131223395   -0.88644861116669    3.76406758226298
H         2.99351675491195    1.68751656541366    2.42295650555101
H         3.86190788701025    3.70175500629071    3.51203397929751
H         2.99334174997078    4.39496873573616    5.71926397059404
H         1.27035223539766    3.02514557007200    6.83679325294645
H         0.39805659867218    1.01310488470217    5.74929767085687
H         2.42487530546901   -4.44027190221136   -0.73159700622710
H         1.83733358775503   -3.81713193598973    0.81838672455688
H         0.69229294375478   -4.25520496055210   -0.47462249804740
H         1.05923835878926   -2.26472447243826   -4.48765004451899
H         0.78547670515814   -1.40084371329106   -6.77793681624790
H         1.14216817778751    0.99578515800736   -7.24408843626938
H         1.75040999760136    2.52510751609487   -5.40834643724668
H         2.00173983046705    1.67359653766502   -3.12095826929358
H         2.10018032395119    0.81619091397173   -0.96091078844106
H         0.16722719169885    0.30734303066578    0.18891477503151
H        -0.84510421393984    2.42187375942994    2.36964304250433
H        -4.36075490926248   -2.17413439998977   -0.89034531235834
H        -2.75481641721629   -2.88949318945291   -0.77772098977144
H        -3.49623377919900   -2.14737581833774    0.65823942619991
H        -2.58612133505759   -0.26744247961177   -4.50686189002838
H        -2.25287355373320    0.77573670628211   -6.71174366651293
H        -1.35592506503691    3.06909397182132   -6.87027576059436
H        -0.76472596694161    4.29945207204139   -4.81572191763450
H        -1.08339608773775    3.25975525397426   -2.61765388034882
H        -1.36899805408405    2.18072509223502   -0.57603169122464
