72
 energy: -121.671428881196 gnorm: 0.000268792851 xtb: 6.3.3 (4ae9cef)
C        -1.99104469100358    1.46100554340069    2.51218999783279
C        -2.23291325399553    2.33877388058696    3.53163049646250
C        -1.45128804894284    3.50020260939550    3.69423530890042
C        -1.67867172761479    4.42539413201057    4.73459102947493
C        -0.90271395622057    5.54349755392237    4.85569017941871
C         0.13747796507891    5.78836364804559    3.94421651924319
C         0.38409612634192    4.91160328596212    2.92615016585935
C        -0.40073734049427    3.74899649812332    2.77251712137978
C        -0.17699648747306    2.82944991818513    1.73089032455862
C        -0.95017569885104    1.70336725715157    1.59925349514906
C        -0.64549439230765    0.75471214990280    0.46631585497438
C         0.77085024578329    0.12143386046150    0.61668294401334
C         1.77246934362797    0.70393862682649   -0.34036053600571
C         1.61233434169655    0.56933320637367   -1.69526982286446
C         2.54246972318866    1.12338187746117   -2.59514537129558
C         2.40824590412899    0.98212759519185   -3.99230717503633
C         3.32931667343843    1.52987224311373   -4.83999102163331
C         4.42474081754286    2.24623207858460   -4.33179745505233
C         4.58166071599969    2.40184406349358   -2.98330971873590
C         3.65094527789050    1.84601317367209   -2.08149871355950
C         3.78608977074532    1.97864150401975   -0.68464750253809
C         2.87459528789694    1.41855085514742    0.16324799999540
N         0.51731240058006   -1.29954636965881    0.37729573919767
C         1.41857818030732   -2.17209294133640   -0.17063174422353
C         0.83472014519461   -3.38785236952699   -0.76797316319066
C         1.34426576930397   -4.66069318062152   -0.68310823575157
C         2.50189765270443   -5.18815272496853    0.07890052406179
O         0.59467462866240   -5.50177207258623   -1.41450484142626
C        -0.37953573087139   -4.78173312921848   -2.00064758475028
C        -0.29067020019620   -3.47608252440463   -1.64457917124302
O         2.61263148038465   -1.94958420646115   -0.14837631148697
C        -0.84586084298817   -1.56816379840888    0.76575372040471
C        -0.93944354933760   -1.81816650322103    2.30052495598140
O         0.21209472813040   -2.10626168782307    2.89802940771090
O        -1.98152700716353   -1.79932225976062    2.88472896263923
N        -1.55569886135376   -0.37987755168565    0.37380990962884
C        -2.56542695347365   -0.33961157123085   -0.55630718396668
C        -3.35512036525133   -1.57107699574486   -0.70446966879895
C        -3.92982743583282   -2.00549443763462   -1.87715797662163
C        -3.87611374089345   -1.44708706714910   -3.25054859997622
O        -4.60577656196074   -3.14540219332927   -1.65931674351848
C        -4.50139433468214   -3.43932421436278   -0.34746572890779
C        -3.74430103954456   -2.51610578156377    0.29435009587669
O        -2.78695874501159    0.67024695839496   -1.19547332987470
H        -2.60052119073027    0.57787679465094    2.40191253628845
H        -3.03455717225136    2.14887785672368    4.23026136301617
H        -2.48022203003003    4.23285942520112    5.43334906661077
H        -1.08336471524528    6.24938962216900    5.65315131165624
H         0.73999900067883    6.67797672688020    4.05598159722665
H         1.18190464492686    5.09440549897506    2.22021783542701
H         0.61808071391483    3.02554304573349    1.02429029140009
H        -0.71979189664920    1.31107182323510   -0.47778491995733
H         1.12243144073074    0.27431426346719    1.64759109350234
H         0.76975087337544    0.02162618748749   -2.09642259486321
H         1.56352663890096    0.43053377084251   -4.37989700013667
H         3.22242993525661    1.41572237365345   -5.90879613376699
H         5.14242921321471    2.67237170377626   -5.01744700115357
H         5.42330199736865    2.95152660142479   -2.58651089612817
H         4.63107634650895    2.52664693164631   -0.29330555823906
H         2.99253906992105    1.51668937358890    1.23295571265047
H         3.02175834357499   -5.93759799249423   -0.51323790962780
H         2.17357943479186   -5.65769825676345    1.00667597863485
H         3.17950130251185   -4.37132955673250    0.31024260801590
H        -1.06177350164409   -5.30451526480150   -2.64030487935338
H        -0.91059032685198   -2.67242376750041   -1.98860410261643
H        -1.25627871759614   -2.46129626031450    0.28320122271476
H         0.97012226171743   -2.05112410360021    2.29054812014706
H        -3.47958490556796   -0.43702176856082   -3.20798132983268
H        -3.24708775275994   -2.06249699743762   -3.89491239255773
H        -4.87560948145451   -1.42515884504471   -3.67991156592866
H        -5.00767013613994   -4.31772886883110   -0.00132397325924
H        -3.51915560361436   -2.47261825613709    1.33993936776180
