72
 energy: -165.875396578402 gnorm: 0.000398788123 xtb: 6.3.3 (4ae9cef)
C         1.24731435296825   -2.89426526166995    1.87995854613326
C         0.94284891664669   -1.74608715083396    2.80379070828849
F        -0.11304058244295   -0.98306755688211    2.46276668862372
F         1.97486209683944   -0.88293108163679    2.92325131716440
F         0.67999386609712   -2.15424126783558    4.05503763812794
C         1.72974092576694   -4.04611112327254    2.49661685380015
C         2.07449975098110   -5.15695469798200    1.75355468115402
C         1.94796950565144   -5.12073522122174    0.37699083290658
C         1.48760417317528   -3.97422998829723   -0.23896305306211
C         1.13382646234198   -2.84204069205165    0.48766803032880
C         0.61298138749725   -1.66911204238586   -0.30371801707118
C        -0.92057414697159   -1.51822047116173   -0.23426819877584
C        -1.62633383369676   -2.09432222738098   -1.43743121468504
C        -2.43743161671641   -3.22876078209555   -1.35741771743135
C        -2.62709512358121   -3.96696168473043   -0.06029045982166
F        -3.36956653190580   -5.07335911044998   -0.19305719259439
F        -3.21331903806701   -3.24139298996577    0.90361691023448
F        -1.45004915580477   -4.38776477061338    0.46724794928220
C        -3.08560427540250   -3.70943604530196   -2.48908369691329
C        -2.93236760415625   -3.07001090078025   -3.70502091153522
C        -2.12073293560062   -1.95323088836738   -3.79528404493220
C        -1.47206690207268   -1.47486586008320   -2.67200240655510
N        -1.11262256312325   -0.07511718711135   -0.13146476062453
C        -2.36182310348534    0.45091225383149   -0.08933775121649
C        -2.39902982286923    1.91276741175702    0.20544262453929
C        -2.59148487979350    2.95185498725061   -0.66271529374918
C        -2.67700975137200    2.97495790965150   -2.14881446410008
F        -1.69050777673755    3.72506033284216   -2.69213746892165
F        -3.82376043258872    3.48386812842844   -2.61100359217137
F        -2.54245057022965    1.75103137601943   -2.66789984160821
O        -2.63424819385725    4.12682769369667    0.00064350545188
C        -2.48731441693316    3.85341641581295    1.30974031297451
C        -2.51637802959477    4.97877507078153    2.27554026744821
C        -2.33655211409636    2.50840649963994    1.49338602974153
O        -3.35995087380925   -0.20897382601920   -0.24984784290260
C         0.12144824990977    0.65364650284054    0.02935516516490
C         0.39748558586798    1.51386936235785   -1.22814794833790
O         0.44291747261326    2.81135311781675   -0.94607828305978
O         0.55205658870844    1.05091227663757   -2.32030258860009
N         1.11926464451444   -0.38047091308460    0.14925518683173
C         2.46366894649059   -0.16729783862603    0.21135014748604
C         2.84006066048454    1.24851775958873    0.48456766160136
C         3.43738611474356    2.12488947219592   -0.38104731705949
C         3.75228887148286    2.01985097116805   -1.83387297582189
F         3.51341943242086    0.80272313685235   -2.31680772736792
F         5.02261566082455    2.32716454521726   -2.11893432426624
F         2.99249234452957    2.87843696785661   -2.55640988366816
O         3.67011433401207    3.30858217079149    0.22395591392620
C         3.24682652003183    3.19890249646529    1.49638456298738
C         3.40655267836663    4.36665762820325    2.39680088546209
C         2.72340931254726    1.95618772362122    1.71057893679425
O         3.27078777687615   -1.05710745991894    0.09345873147273
H         1.82935111898723   -4.06961792306249    3.57076131329674
H         2.44152000408430   -6.04113272186432    2.25017022860774
H         2.21320395670028   -5.98046848472740   -0.21824292651421
H         1.40047893257195   -3.94710578191751   -1.31431763634157
H         0.91898483765640   -1.80879605833942   -1.34992359381576
H        -1.31149842704567   -1.96743709530180    0.68276481232898
H        -3.71471122663585   -4.58249229591664   -2.41276899459876
H        -3.44761185411522   -3.44522135084735   -4.57534379514185
H        -1.99268918784447   -1.44632116718833   -4.73877509804534
H        -0.84631945289317   -0.60047454933826   -2.75517795233709
H        -3.49424712796882    5.45783507286611    2.26348999033545
H        -2.31262352559020    4.61082172794453    3.27576136733198
H        -1.77467850187947    5.72768717017390    2.00408664307976
H        -2.21244044689021    1.98744752081238    2.41984824038820
H         0.10435268401803    1.30706159714434    0.91369031606561
H         0.61247988965523    3.33941140993160   -1.74892477226201
H         2.98106152057743    4.14220330002775    3.36927516514028
H         4.46190138929116    4.60754269960772    2.51429514348123
H         2.91050603065219    5.23870874352952    1.97422570493460
H         2.32985802919643    1.56784701488524    2.62550873298731
