68
 energy: -116.961166567367 gnorm: 0.000354945631 xtb: 6.3.3 (4ae9cef)
C         0.12448396397298   -2.80409994700037   -0.23947535115458
O        -1.21236032148584   -2.78780005969451   -0.50098058629858
C        -1.92177173899551   -4.00123363842360   -0.47691475805684
C         0.86838160994885   -3.95493316464928   -0.01073446605281
C         2.22566827975100   -3.86821838493898    0.24948906333557
C         2.85487842892909   -2.63911135646117    0.29350632453536
C         2.11767104213841   -1.48965397943721    0.06830940386187
C         0.76480186393211   -1.55738466323519   -0.21392206313628
C        -0.05166388311865   -0.31072723669810   -0.41893154949681
C        -0.38510730360570    0.33865291310084    0.94320384549208
C        -1.77509680670439   -0.03421913328858    1.38204730455096
C        -2.88666102453755    0.59663764372626    0.85296737582640
C        -4.16174528234716    0.22377011249315    1.24246336908410
C        -4.32198679830336   -0.79615832866704    2.16010446855200
C        -3.22032072573160   -1.45483838846652    2.68091898886618
C        -1.93884030987757   -1.08608095346163    2.29297163356699
O        -0.79484221438393   -1.69659823871742    2.72341305546481
C        -0.89881264428320   -2.72894486211126    3.67123300514995
N        -0.20834258965986    1.76246819275601    0.70823549816321
C        -0.57572424183336    2.69147775790680    1.62844401204053
C        -0.40427515052472    4.09588362142813    1.17244523016598
C         0.74063699883201    4.84304516454886    1.10620712985861
C         2.15346552667197    4.50366522396650    1.41945427547792
O         0.45211700693995    6.08695500440486    0.67524748062114
C        -0.87492754036724    6.14703362868845    0.46671668246379
C        -1.46085070375214    4.95841284912431    0.76181091530113
O        -1.02120503699425    2.39000666549411    2.71444980864622
C         0.40991780880413    2.03882669336052   -0.56085427199099
C        -0.52614385264661    2.84305317238268   -1.48537395123423
O         0.05712311403324    3.94150496521066   -1.93954162089249
O        -1.64041509334684    2.50132208841020   -1.77132253321035
N         0.64565438009277    0.73553296776614   -1.13983694280651
C         1.43189117887285    0.62081227009001   -2.24092290720392
C         1.50253537957100   -0.71768309663179   -2.85583544406190
C         2.65212916881285   -1.34321179927059   -3.26804780894167
C         4.07193429508048   -0.93138535251923   -3.14587420210972
O         2.35504972359700   -2.53285740969883   -3.82038926341505
C         1.01502271120219   -2.66805395192193   -3.79499926151992
C         0.43320855955950   -1.58980391241805   -3.21449419149729
O         2.04298491976147    1.58300599257079   -2.67452019507280
H        -2.96267782003405   -3.73329428310914   -0.65143283342150
H        -1.58420153204120   -4.68198862596088   -1.26528770460076
H        -1.83609445255861   -4.49769988625572    0.49470153289251
H         0.40050687544429   -4.92631592636859   -0.03435887010700
H         2.78897461009089   -4.77315776073010    0.42188737789761
H         3.91077128062216   -2.57356906588137    0.50663321294538
H         2.60021408760373   -0.52375958584110    0.09922563513388
H        -0.98884255948589   -0.56286655432741   -0.92823812626259
H         0.32597475662310    0.00817723444406    1.71084250291797
H        -2.75085886544104    1.38587834477591    0.12832614808103
H        -5.02239299559589    0.72770199225593    0.83035238410988
H        -5.31129973070074   -1.09271871701407    2.47663453083825
H        -3.37419338310071   -2.25265003064731    3.39065040632033
H        -1.34950664143158   -2.37647878200674    4.60437491589250
H         0.12307660417972   -3.05330770252994    3.86299455910617
H        -1.47755437797102   -3.57535140829332    3.28539168777271
H         2.19418780209615    3.55908349914181    1.95450155385878
H         2.74132583423181    4.42706599662056    0.50387654264753
H         2.59622185392461    5.28381926315014    2.03581938109423
H        -1.27551844456656    7.07876397167899    0.12062157182157
H        -2.49856779578918    4.70393257553037    0.70022243234958
H         1.35656980427136    2.59279259143233   -0.47517350281542
H        -0.51395600535894    4.41533933522874   -2.56634095262596
H         4.61735903261123   -1.19910609258540   -4.04798918619066
H         4.54269015037042   -1.43314725097631   -2.29995547442275
H         4.11730515343270    0.14329529084185   -2.99631858348248
H         0.60610935982758   -3.56159831998919   -4.22244184955629
H        -0.61408429925727   -1.41791017230417   -3.08018579506105
