66
 energy: -130.302173701386 gnorm: 0.000599901513 xtb: 6.3.3 (4ae9cef)
O         2.86498425031013   -1.30155987071220   -1.89402999258873
C         2.62483725231648   -0.37084230512386   -1.15867373008252
C         3.68076383266259    0.56645190349743   -0.64864096786328
C         4.06160709069982    0.52640985824980    0.68820392914289
C         5.06650631045166    1.35759027619512    1.15133625769714
C         5.69659504741060    2.23455814464434    0.28627258201088
C         5.32318725274203    2.26075961680267   -1.05126120394335
C         6.04110481397097    3.20476974572345   -1.97650337886417
F         7.34065672277413    2.87970655376127   -2.11225520666388
F         6.02175766136662    4.46897462102855   -1.52094795429067
F         5.52557718512567    3.23321081430852   -3.21040831745201
C         4.32407983472079    1.42610794689248   -1.52845177530013
N         1.36021433242470   -0.07349968300517   -0.74640759068153
C         0.94468903614637    1.09344557685061   -0.01414192956147
C         0.74418185858764    2.34495426173903   -0.92025265504135
O         1.12822376043525    2.20432315186125   -2.18869829428037
O         0.28297711838786    3.35795855942861   -0.49392416321025
N        -0.30762156702038    0.71278977032691    0.59475719311662
C        -0.52777895381394    1.00825153964182    1.91108950404875
C        -1.85360181222776    0.53837806291224    2.41548167350160
C        -3.01950442924131    0.97852826582900    1.80049851951499
C        -4.24271178798739    0.53093850516215    2.27200209161310
C        -5.52020108488242    0.94896654656165    1.59994937467093
F        -6.41579404239257    1.44908719658680    2.46815034644434
F        -5.34888167266708    1.87327087179965    0.64923983539987
F        -6.13106587643301   -0.09716838195667    1.00503255797872
C        -4.31658557384833   -0.33809938631946    3.35450790610101
C        -3.15193699353204   -0.74567531377467    3.97994247286728
C        -1.92319446566604   -0.30783496206586    3.51516311957219
O         0.27855511597422    1.60658765914866    2.58607746658869
C        -0.90640317426917   -0.42297769180950   -0.09379569368517
C        -2.16531203467914   -0.11509540987588   -0.86750463384870
C        -2.31765890979924    1.05639615962954   -1.59771333364839
C        -3.49173970373095    1.29897957084453   -2.28953340410551
C        -4.51825511656920    0.37092494102251   -2.26812943834391
C        -4.36842725794294   -0.80437171785699   -1.55162148409687
C        -3.19882956341558   -1.04436407940391   -0.85372115134771
C         0.22856137524210   -0.96210413973199   -1.00966394696088
C         0.56957865516683   -2.39226654031275   -0.67984117802289
C         0.30188108052228   -3.41120225933282   -1.58052688077886
C         0.60409735960699   -4.72224960830119   -1.25662181067044
C         1.17674227747587   -5.02235761840484   -0.03307199341875
C         1.44197486501510   -4.00805114182801    0.87184124979785
C         1.13527943939903   -2.69898766359449    0.55201026871169
H         3.57950038309790   -0.16549943631600    1.36313185940231
H         5.35842663820725    1.32324669101182    2.18898083225797
H         6.47606236513112    2.89246049798403    0.63835137847856
H         4.05556042219271    1.44446475802741   -2.57389683097634
H         1.64440461756932    1.39164834899604    0.78207123723988
H         1.44395849635296    1.30925922611128   -2.39410449769562
H        -2.97318074867463    1.67357658890259    0.97738137437306
H        -5.27940159899763   -0.67799967367769    3.70419425883317
H        -3.20284163349560   -1.40654654225885    4.83106257837600
H        -1.01115186094262   -0.62065715558838    4.00085918416102
H        -1.15190205534748   -1.18845522258125    0.65360106666497
H        -1.53504140143723    1.79835777890380   -1.60907936506449
H        -3.60283837865371    2.21955898350553   -2.84122354669726
H        -5.43524759495897    0.56553537546180   -2.80217243491588
H        -5.16744856650430   -1.52889471946366   -1.52289780825234
H        -3.08606985797675   -1.95769888871307   -0.28652837750250
H        -0.06879066643814   -0.89001335822043   -2.06423636713261
H        -0.13684805121055   -3.17672613464635   -2.53895707141395
H         0.39792484203765   -5.50984529797339   -1.96539310503158
H         1.41978484389082   -6.04434317231091    0.21546156261748
H         1.89005711675907   -4.23703552073372    1.82731744726424
H         1.34197218059883   -1.90800547350878    1.26086238491547
