74
 energy: -126.848720842476 gnorm: 0.000269660603 xtb: 6.3.3 (4ae9cef)
C         3.22659113918417    2.26883675156080    0.45659143608529
C         4.40045735660005    2.50089292593505   -0.19931464082459
C         4.87447506062315    1.59972758110349   -1.17623451707545
C         6.08558468197945    1.80164268323899   -1.86890990213098
C         6.51184180231028    0.90001703892919   -2.80399856057401
C         5.74895826028379   -0.24376441977251   -3.08798440358620
C         4.56973634707911   -0.46777104265314   -2.43427337625010
C         4.10367134145929    0.44519176424200   -1.46602317629027
C         2.89108715446132    0.23857137529233   -0.77789948529071
C         2.45706859676987    1.12322240101884    0.17061214669142
C         1.14539614670407    0.94749475202043    0.89762353768913
C         0.03420919976593    1.73624359050522    0.18966935580983
C        -1.15529405161871    2.14711898078271    1.02683268987184
C        -1.34461305607013    1.77414553215630    2.33057588559436
C        -2.52672148740389    2.12028727604170    3.01932974213451
C        -2.74053208100910    1.73965741205300    4.36000583475067
C        -3.89795569727759    2.07803703052985    5.00362167832935
C        -4.89246481746908    2.81072836476170    4.33685613220268
C        -4.71544986553023    3.19065500689160    3.03552399046066
C        -3.53329585374350    2.85701373621035    2.34351228971475
C        -3.31402065503541    3.22784783775949    0.99921956170447
C        -2.15852922331185    2.88614849579417    0.36109114993367
N        -0.42182115077175    0.74294719396237   -0.77945977014616
C        -0.57473312151425    1.01515848240932   -2.09789221765565
C        -0.96145749976553   -0.15767491287293   -2.94575939557534
C        -2.30780596687017   -0.34563418923542   -3.27808700148647
C        -3.29265978938225    0.53738611103641   -2.77478878933869
N        -4.11159678181456    1.23318145060666   -2.37622190829509
C        -2.68093857791818   -1.40544842297208   -4.10432495717368
C        -1.71560536235211   -2.26216460067010   -4.59888016308190
C        -0.37949992684841   -2.06350285087029   -4.28585599434465
C        -0.00158025583056   -1.01224073275620   -3.46623117796176
O        -0.42870845266476    2.12915823168709   -2.54897678831095
C        -0.44795842708730   -0.52424116974848   -0.10608779065547
C        -1.79755543161386   -0.73275839490263    0.62232940670081
O        -2.80735003862923   -0.42409863852003   -0.17805876622443
O        -1.91482979743303   -1.15810026320510    1.73602381551358
N         0.64811062932271   -0.42746956440360    0.83469559702430
C         1.04200876860216   -1.32431565590621    1.77450787143550
C         0.46159518517908   -2.70352607034689    1.72779718894390
C        -0.11855433006442   -3.18865190017480    2.89302550988518
C        -0.62063705733751   -4.47573343138902    2.95184583727691
C        -0.52572263271829   -5.31458367133177    1.85090535195870
C         0.07842470872192   -4.86568242077368    0.69447919384804
C         0.57495263557938   -3.56072722921442    0.62652094966551
C         1.20721964103834   -3.15851016064353   -0.56839727160954
N         1.69745339047292   -2.86010289053728   -1.56278054907761
O         1.84061005776338   -1.02177204810145    2.63776588885538
H         2.87259606177095    2.96125716836690    1.20688944502284
H         4.98723070465582    3.38005151511566    0.02517281028071
H         6.67130214947810    2.68212901372740   -1.64576945616162
H         7.44136731391645    1.05999841997583   -3.33081246979883
H         6.10486077360274   -0.94612614693544   -3.82763646543878
H         3.97971481490351   -1.34935103095109   -2.63985262389797
H         2.32424174572442   -0.65083604013986   -1.00802072026314
H         1.27788747459295    1.23734021737226    1.94339033978111
H         0.42489866324791    2.59550551948362   -0.36330889063227
H        -0.60880671067762    1.19465948232413    2.86826832752010
H        -1.97224608959340    1.17371863681421    4.86661012636360
H        -4.05610065902912    1.78454709573765    6.03102699553245
H        -5.79946506107217    3.07159889391021    4.86236030217640
H        -5.47766536288101    3.75396740192168    2.51657501538614
H        -4.07932035157212    3.78364708478644    0.47844538998049
H        -1.99914663367536    3.16437210678147   -0.66956919533470
H        -3.72321293770570   -1.54218485997601   -4.35213401987103
H        -2.00550315092284   -3.08252472004605   -5.23805512619339
H         0.37423943479936   -2.72740836081572   -4.67950186962743
H         1.03970470654787   -0.85269721869173   -3.23212691649938
H        -0.33132017634615   -1.35069044855942   -0.82102719525379
H        -3.66579382138810   -0.49460006367457    0.27167382474104
H        -0.17871605951394   -2.53485104622587    3.74826166301804
H        -1.08086557841372   -4.83035115097178    3.86128454326506
H        -0.91223346835439   -6.32135437525858    1.89801598232400
H         0.18079050309372   -5.51265341956889   -0.16468225557248
