72
 energy: -124.417996386246 gnorm: 0.000560606105 xtb: 6.3.3 (4ae9cef)
C         2.04099710726133    0.84119511179325   -1.95556170741237
C         2.87040201560673    1.55151596221175   -2.77313020343576
C         3.51797729128741    2.71532163463503   -2.30878368987643
C         4.37938131195306    3.47337224722394   -3.12783172878766
C         4.98856068977312    4.59815715570569   -2.64624309357017
C         4.76356709188977    5.01532595369272   -1.32488597739440
C         3.93447759774172    4.30103299197507   -0.50614754460823
C         3.29183740501291    3.13516331803714   -0.97208172274046
C         2.43717101603171    2.37377161440880   -0.14967098874595
C         1.82401686823559    1.24640757816680   -0.62397615111088
C         0.88362747694027    0.45446669246279    0.24307722696501
C        -0.58244907957660    0.64659186378625   -0.18641078635621
C        -1.37776472040613    1.53905930671750    0.72954627489391
C        -1.94117167243353    2.69109935688302    0.24919905291412
C        -2.71124128629670    3.52638248139997    1.08225522250089
C        -3.30734927615579    4.71279799084921    0.60601652388978
C        -4.06133441959079    5.49540639602233    1.43446529034887
C        -4.25226717723939    5.12981540253451    2.77657601035395
C        -3.68621404947287    3.98713403517086    3.26823708993891
C        -2.90389317912708    3.15724907049707    2.43896012434247
C        -2.30711369489463    1.96943298996800    2.90905544893982
C        -1.56116701332831    1.18195259316531    2.07989450519303
N        -1.12222277185815   -0.71279549936258   -0.23106077543139
C        -2.33168076186555   -0.94001479707700   -0.80270961762827
C        -2.73306311651005   -2.38423895415118   -0.87190511769265
C        -3.48646172133107   -2.96389377055833    0.13686903706385
I        -3.97298592036944   -1.83243922332361    1.85784319377823
C        -3.90950580520393   -4.27821709781215    0.04194543224601
C        -3.57633220622213   -5.02166406808304   -1.07659692506668
C        -2.82916095358900   -4.45419991719013   -2.09503582485879
C        -2.41408170679569   -3.13843606023101   -1.99446693705659
O        -3.03103943033337   -0.04822820075664   -1.22600750380032
C        -0.13718591796436   -1.71286386894080    0.09334501548949
C        -0.38207355497599   -2.32822136913696    1.48952814671448
O        -0.79346148472379   -3.59317372968287    1.40323531628829
O        -0.19704400250404   -1.75149352830427    2.52012554467717
N         1.10469784126721   -0.98150458384717    0.09663765863503
C         2.32601638676829   -1.52665855934959    0.34145153571053
C         2.35659736331904   -3.02328006554957    0.24229671843128
C         2.18150569846783   -3.63198807113637   -0.99633994604177
C         2.25262867202719   -5.00690240676692   -1.12153837878047
C         2.50162648797065   -5.78760081936931   -0.00454128845546
C         2.69296976378049   -5.19460551892247    1.23012720029386
C         2.62947154075750   -3.81506482714956    1.34828607244631
I         2.92969179561512   -2.93328656202107    3.24309559306356
O         3.31187108839846   -0.86444102830678    0.56689723709933
H         1.54702098754478   -0.04868487222822   -2.32140793133519
H         3.04237395909149    1.23191828678962   -3.79129099912798
H         4.54982607854171    3.14780957972933   -4.14439956473820
H         5.64819778146213    5.17419283411871   -3.27867340345020
H         5.25355343974731    5.90667608371766   -0.96135043619231
H         3.75952663394907    4.61690212184554    0.51216149144134
H         2.27553981226473    2.69176786893411    0.87017755135867
H         1.01838022921763    0.73833278609336    1.29441512374402
H        -0.63130326981496    1.05815487202848   -1.20406286894285
H        -1.81170594916246    2.96925442209069   -0.78694927246556
H        -3.15934772009801    4.98793114973424   -0.42846016130386
H        -4.51797476774942    6.40130740004752    1.06302671511202
H        -4.85240261315212    5.76038007943209    3.41634403972711
H        -3.83108191691845    3.70022272178757    4.30004477587180
H        -2.45289964151785    1.68482440093410    3.94087661123080
H        -1.11368760153754    0.27701334142458    2.46070575077870
H        -4.49798748125296   -4.71637397420089    0.83331908563444
H        -3.90757837072845   -6.04606219969423   -1.15166707713895
H        -2.57529529459748   -5.03309012216395   -2.96971612478019
H        -1.84660116388931   -2.68056939311664   -2.79207685994518
H        -0.13989674775298   -2.53444903296314   -0.63836778781885
H        -0.94872920813973   -3.96145528836825    2.29066365235059
H         2.00755210117867   -3.01309237514767   -1.86512908679532
H         2.11866827094746   -5.46802740414148   -2.08801402275285
H         2.55628858252033   -6.86177280337801   -0.09335748662518
H         2.89873928250803   -5.80055170358508    2.09914972278632
