19
 energy: -27.902676816434 gnorm: 0.000785666740 xtb: 6.3.3 (4ae9cef)
C        -2.34229160129723   -0.10531207476494    0.92936248888262
C        -2.32169258997022    0.63870046436711   -0.15931592385178
C        -1.14434510436152    0.81735141502712   -1.07874372475298
C         0.12326049233558    0.23593082704410   -0.53098892094009
C         0.86940811327531    0.89014579888129    0.44392286403247
C         2.02655660344023    0.34378422626874    0.97062450553416
C         2.45922018720938   -0.89259571633126    0.52602615124203
C         1.73262014777234   -1.56826071254347   -0.43902766865862
C         0.57986044925301   -1.00572976541923   -0.95747157359564
Br        0.30971479810147    2.59551886929734    1.09818520409753
H        -3.22481322023518   -0.18603644756929    1.53983081098651
H        -1.48212313407046   -0.66333829684160    1.26239736046027
H        -3.20626970134666    1.18015447132719   -0.46565075628107
H        -1.38115249065690    0.34681264838031   -2.03791112382896
H        -1.01489102936033    1.88785392938965   -1.26642357631309
H         2.58078460995190    0.88183051121907    1.72451558906711
H         3.35945181358354   -1.32398821576566    0.93642952266064
H         2.06297230152166   -2.53493595702057   -0.78787130926634
H         0.01372835485401   -1.53788697494581   -1.70789091947449
