84
 energy: -123.945431678419 gnorm: 0.000801860868 xtb: 6.3.3 (4ae9cef)
O        -2.64394099140537   -1.94754520944864    2.27470002471506
C        -2.03475966953801   -1.32024196558739    1.43655511050271
C        -2.36103363918784    0.08766475460379    1.06653457561735
C        -2.35821951465188    1.08026142231248    2.03429723841139
C        -2.67006972102029    2.38720437227051    1.70179737291798
C        -3.01398763379440    2.73804052157675    0.40208698113038
C        -3.35798170478771    4.16006758772008   -0.01045745045170
C        -4.78776502717426    4.18765345356996   -0.56897463591384
C        -2.36498232763309    4.61556093250707   -1.08936258866915
C        -3.28286161571087    5.14847668012310    1.15612595182113
C        -3.04632873784003    1.72365836713838   -0.55289659508553
C        -2.72514585890505    0.42071413887739   -0.23297718023346
N        -1.01121867427970   -1.87267167081631    0.71639494899882
C         0.01798116079212   -1.12024137340554    0.03744165400663
C         0.74469296995198   -0.20039422542717    1.03989193273137
O         0.52657622127977    1.08465453797483    0.77400455779142
O         1.39097788495205   -0.59115805721882    1.97127372312511
N         0.90632599881218   -2.13018393038292   -0.48125202527518
C         2.03043188565086   -1.87947704025177   -1.20535454691211
C         2.35017831790839   -0.42026580986832   -1.30561784364727
C         3.36769959437957    0.09718412960552   -0.51757200122069
C         3.65798234575979    1.45049624782388   -0.54693654224926
C         2.94985616066914    2.32151928857948   -1.36602518460328
C         3.21190673713280    3.81878937887688   -1.40338062150850
C         3.59721911059841    4.22818879055069   -2.83167866281240
C         1.93216009811208    4.55375368611370   -0.97911856525551
C         4.34390292586795    4.24520496611876   -0.46479577624714
C         1.95741422527076    1.77975521849573   -2.18063162548260
C         1.65995012553867    0.43192612599396   -2.15751092554391
O         2.70987668709963   -2.75933545337232   -1.68409243195090
C         0.50175131927902   -3.47755231870743   -0.10016736619705
C         1.64233284243235   -4.30916182488483    0.42019790694445
C         2.53366112602804   -3.77640772868045    1.34330747964452
C         3.56509600696295   -4.55240864256886    1.83890017255925
C         3.70583781967814   -5.86780931534912    1.42964144739037
C         2.81065725668254   -6.40544358306963    0.52143397493149
C         1.78349147630918   -5.62820194854121    0.01636718223483
C        -0.56612103272666   -3.23417200153769    0.98509122515228
C        -1.68618886543111   -4.23285771225762    0.89581597730239
C        -2.64612655709078   -4.13055941096064   -0.10243763622396
C        -3.65401349514222   -5.07166172731388   -0.20099579773070
C        -3.70210909858579   -6.13262689387006    0.68716044998549
C        -2.73927884792135   -6.24683525997773    1.67482511251253
C        -1.73609910982314   -5.30003105305036    1.78026410007493
H        -2.10307937457078    0.82360493203030    3.05210403069058
H        -2.64464521722703    3.12999522373823    2.48222230233326
H        -4.88385254937443    3.55962872803277   -1.45007623980935
H        -5.06151870749337    5.20386761155300   -0.84445907811097
H        -5.49068048995404    3.83189621635008    0.18129102342718
H        -2.41812087243503    3.98178581517565   -1.97021604001640
H        -2.58470512404723    5.63718925322015   -1.39123286624324
H        -1.34858330696652    4.57973783213993   -0.70249086140780
H        -3.98664941198872    4.88183391544966    1.94090080725197
H        -2.27929692971025    5.18859803443089    1.57332331718474
H        -3.53829079263793    6.14500281741741    0.80199990126471
H        -3.33015569866636    1.94741684460554   -1.57001451063424
H        -2.77990591070645   -0.34842409613619   -0.99074439580872
H        -0.40019359541915   -0.48580048397749   -0.75637657660551
H         0.97370967482764    1.65511345064827    1.42066414038024
H         3.92717401227795   -0.56375368397004    0.12791879020381
H         4.45089873777166    1.81246199376438    0.08680928433312
H         4.47769649272446    3.67738270185083   -3.15479667345946
H         3.82272267785595    5.29174714425016   -2.86802578539432
H         2.79325935225403    4.02767617539988   -3.53393085189064
H         1.10309981426211    4.31565567254685   -1.63946436191021
H         2.09235774217109    5.62939282084707   -1.00540518173437
H         1.65213658849597    4.27130797706671    0.03415190962972
H         5.28110869135366    3.76954864636995   -0.74312040576742
H         4.48201918656512    5.32237485800147   -0.53118579793902
H         4.11334681906298    4.00119846937620    0.56979576900599
H         1.39861267756886    2.41693747154053   -2.84858500370989
H         0.89197763219969    0.03831692664160   -2.80818579725268
H         0.05017720839511   -3.97549036691417   -0.96969039062739
H         2.42258111610290   -2.75228095057831    1.66983875485625
H         4.25910196974396   -4.13005346935498    2.55068264244608
H         4.51220736319919   -6.47238316474139    1.81818049590618
H         2.91654540508042   -7.43047000484383    0.19835578350238
H         1.08956368851858   -6.04577495051391   -0.69867081570402
H        -0.10565275509028   -3.28264119235710    1.98141841057164
H        -2.61042267699756   -3.30283647504112   -0.79648954449658
H        -4.40416727611724   -4.97715563039887   -0.97254302750896
H        -4.49020543940557   -6.86698622452167    0.61038358864181
H        -2.77240257665095   -7.07271837638952    2.36976224009821
H        -0.98749631953706   -5.38643590688919    2.55402491693345
