88
 energy: -146.732698548926 gnorm: 0.000535054291 xtb: 6.3.3 (4ae9cef)
C         2.83719299365737   -1.90731822056482    0.34806593152974
O         2.84776633344812   -2.15137049280493   -0.99269170507649
C         3.90217361671557   -2.91316887236676   -1.53170301197708
C         3.82590377638635   -2.33539399017916    1.22640997704308
C         3.73683229387480   -2.04306914708198    2.57589928035661
C         2.66061464796575   -1.32993027487697    3.06938382232426
C         1.67660939495143   -0.89713725007540    2.19928180111202
C         1.75561265922528   -1.16159140042531    0.84071796226945
C         0.67092506890679   -0.71181255228134   -0.09658357348883
C        -0.66526569713306   -1.40482318210800    0.27755031544934
C        -0.91313931941388   -2.68368348975621   -0.47875824025870
C        -0.91110973895421   -3.87936528289575    0.22169182736117
C        -1.13022733467882   -5.08938824287989   -0.41283364132747
C        -1.36066595536943   -5.10800934569818   -1.77432747882662
C        -1.36669980131008   -3.92750217695867   -2.49666970523034
C        -1.14084819243178   -2.71122889081905   -1.86335120842130
O        -1.12010540706942   -1.51310163646154   -2.51777149091099
C        -1.46250119392105   -1.47219383847349   -3.88310336739440
N        -1.68519401011573   -0.38057169843681    0.06727443572920
C        -2.79049979629703   -0.42986674632968    0.87228336156518
C        -3.85002260961399    0.55644333298741    0.59599096605217
C        -4.59021356201808    0.65523713972239   -0.55662973702891
C        -4.46740089183585   -0.05308773034876   -1.85453519090281
O        -5.55021542485659    1.57663995640055   -0.40608440974729
C        -5.45332806346260    2.09041679674077    0.84732356190910
C        -6.37928193979929    3.12723159901194    1.25387727765496
C        -6.33556218431276    3.66636063010131    2.54059487441738
C        -7.22387033402724    4.65602978313742    2.91263434463889
C        -8.16841330373892    5.12478521021668    2.01341782435055
C        -8.21861785498729    4.59624666420136    0.73388444660851
C        -7.33344823194189    3.60664191210478    0.35452893551317
C        -4.42706708996437    1.47219678464680    1.51280489577951
O        -2.91068073814523   -1.30461271869019    1.70842697646106
C        -1.04958083918524    0.75386326546095   -0.57829669418662
C        -1.88319514044372    2.06792151636089   -0.60873404814991
O        -1.88765923802759    2.84624057415896    0.43693945969495
O        -2.49127303453901    2.30199511478034   -1.62042608601256
N         0.31501049377861    0.70866862319999   -0.03470534684771
C         1.02598616246862    1.66280273324007    0.59735547195664
C         2.48035533289990    1.47934215738102    0.60429205636857
C         3.35419904442810    1.83733777700119    1.60569258205246
C         3.10956668562532    2.42043356373221    2.94558331226363
O         4.60703081896558    1.52622735822511    1.24833660732990
C         4.57400809344891    0.99412814672659   -0.00291419604075
C         5.80758637935358    0.53636479728640   -0.60882776534104
C         6.98624029922730    0.49955490796329    0.13783552419050
C         8.15757569621641    0.03463881035152   -0.42747012005303
C         8.17325530880332   -0.40132483910521   -1.74255723397169
C         7.00825071626121   -0.36522509179218   -2.49259085988548
C         5.83323559154849    0.09984581467612   -1.93478129804835
C         3.28027606364840    0.95115718163673   -0.44480130150957
O         0.51762434198631    2.66275130875271    1.11505491623542
H         3.69062804101365   -2.98891420601092   -2.59733945815043
H         3.93192146204754   -3.91750137957204   -1.09905255952511
H         4.86863299200176   -2.41866282167192   -1.38938179404502
H         4.67517712174714   -2.89277401490799    0.86581987235536
H         4.51652450508683   -2.38078304330286    3.24165155195079
H         2.58453103276762   -1.11380092172517    4.12365394816898
H         0.84057060699247   -0.32822906476404    2.57967454557517
H         0.93889016364379   -0.97244775844499   -1.12478434020688
H        -0.67307115144697   -1.65491755325693    1.34600926336399
H        -0.74446430829354   -3.85646194410571    1.28790565846215
H        -1.12796907189622   -6.00692236488904    0.15443179816205
H        -1.54000204420931   -6.04175991630186   -2.28592537136643
H        -1.54781622400020   -3.96479801919281   -3.55900355001158
H        -2.45966301736258   -1.88499453280322   -4.06062298525453
H        -0.72989879723263   -2.00563725040682   -4.49754115241595
H        -1.46019425552959   -0.41720100879701   -4.15440430443392
H        -5.45402777852139   -0.29044879087158   -2.24685861031239
H        -3.89163605614859   -0.96489744191488   -1.72248756612688
H        -3.95535595360600    0.59377926973498   -2.56783090525763
H        -5.60268019179235    3.30695130846264    3.24542195829618
H        -7.18083052375403    5.06683727737948    3.91100450568609
H        -8.86092844539596    5.89931454030691    2.30866717321770
H        -8.95187365134604    4.95952515221736    0.02831960170589
H        -7.36751108354874    3.19545446989090   -0.64265289107005
H        -4.09364226509825    1.64822453173897    2.51392935260689
H        -0.93743549254477    0.49498134310756   -1.64533393799717
H        -0.99962095791370    2.79411006074638    0.93619885756343
H         3.19921594391676    1.65120148916128    3.71325443772541
H         3.84427010683885    3.19513231928156    3.15472985294592
H         2.11160903177028    2.84628700661130    2.97642990947342
H         6.96889267247036    0.83641446138237    1.16296043079311
H         9.06363735724811    0.01069573915269    0.15983620453600
H         9.08943605717291   -0.76543866767937   -2.18276551606113
H         7.01771823251296   -0.70058258694641   -3.51949015812116
H         4.93134727035086    0.13329125014900   -2.52560010584293
H         2.92787578599620    0.59825071946896   -1.39080675406618
