72
 energy: -124.424273346447 gnorm: 0.000906576233 xtb: 6.3.3 (4ae9cef)
C        -4.78290426367689    0.99407934073025    1.57045847678181
C        -5.07287108881354    1.67434970944093    0.42318137574696
C        -4.09074960609180    1.81834847825543   -0.56692407067717
C        -2.85496019218857    1.25582050910522   -0.40961829592813
C        -2.52192974201866    0.53126074018888    0.75618965890386
C        -3.50800857702671    0.42497903423900    1.77624086331676
C        -3.20155648440014   -0.23711537665342    2.98211050667945
C        -1.96031560774054   -0.76716650881542    3.18967436143354
C        -0.99634751882601   -0.69550859731688    2.17872454332571
C        -1.26174459830750   -0.08886878702460    0.97434869728366
C        -0.18642507000840   -0.13902937218458   -0.08359253814696
C         1.11733277476797    0.59776088151450    0.34079338669810
C         1.43936032046833    1.73911865901240   -0.60013953246206
C         2.45588950643898    1.63589845582429   -1.51331553396828
C         2.72414888158848    2.66425385739784   -2.42787458516588
C         1.95916759576966    3.79373544779374   -2.43268991729063
C         0.91305635237641    3.95250978220482   -1.50002767774415
C         0.65286238915899    2.92352872028540   -0.55371047979399
C        -0.37407249929842    3.13703190642897    0.39165679412108
C        -1.12322930398336    4.28078872255299    0.37710762711381
C        -0.88300186610374    5.27960010126843   -0.57645133988398
C         0.12141827680364    5.12010857389312   -1.48809474335365
N         2.12969419192389   -0.44515054402440    0.35470900672645
C         3.27683848408556   -0.29899936318140    1.07185430312077
C         4.21957846318467   -1.45793737656280    0.97505463663884
C         4.02464957932643   -2.60782105763233    1.73001922533294
C         4.92048920239440   -3.65769447193390    1.62917042610393
C         6.00685435893251   -3.57110336577694    0.77592545151662
C         6.19480381864869   -2.41618392740244    0.03924274060673
I         7.85388063337669   -2.26674443074008   -1.25709618973254
C         5.31856331105360   -1.35296429852275    0.13447383937870
O         3.50392267231320    0.70250573902545    1.71279614979110
C         1.68226103818487   -1.60714720024308   -0.36422532909677
C         2.20046873661034   -1.60674790475918   -1.81917604752771
O         1.24262752703592   -1.33152752432517   -2.69698469982321
O         3.34176841536542   -1.82328383533489   -2.11362691878508
N         0.24781353786665   -1.51209184672456   -0.30697230082904
C        -0.50741742650938   -2.63870452369342   -0.33808000622426
C        -1.98673034077724   -2.42831203963111   -0.36450086399578
C        -2.57162872034520   -1.78655833139477   -1.44850805609912
C        -3.94468899893165   -1.64085979926174   -1.48121011216291
I        -4.83665605214517   -0.67754784788447   -3.13534527476308
C        -4.74294603931456   -2.10819375025985   -0.45429098264183
C        -4.15288984053445   -2.76999526268371    0.60925214749757
C        -2.78261690254548   -2.94833897433158    0.64868384592261
O        -0.00002573274660   -3.74197724961229   -0.36324085104034
H        -5.52353606519075    0.88754410572910    2.35001487030715
H        -6.04897948758350    2.11027372046250    0.27262895459222
H        -4.31796308907073    2.37545608220810   -1.46315366265927
H        -2.12409511197458    1.39448389910137   -1.19089583397536
H        -3.96475605199191   -0.30582052476305    3.74349891129803
H        -1.71663792732955   -1.25460347040076    4.12148221201128
H        -0.02834915331383   -1.14730435205307    2.34520602397127
H        -0.53615566024658    0.28369630531074   -1.03017539913056
H         1.04531752481451    0.98992227383856    1.36199633835572
H         3.08059075684956    0.75591277008970   -1.53544778835010
H         3.53709370231976    2.54497670633220   -3.12833160726823
H         2.14695893647409    4.58561871097609   -3.14292646524194
H        -0.57236711553804    2.39423907577649    1.14715969766547
H        -1.90648635457860    4.41845123621719    1.10788673692080
H        -1.48671377492431    6.17483360881053   -0.57551263764832
H         0.33055894822951    5.88978132206920   -2.21712233616740
H         3.18015194263026   -2.67782150793015    2.40043042913202
H         4.77200068650452   -4.55271179574463    2.21392011339878
H         6.70049252980344   -4.39355482579200    0.69319496604671
H         5.47368074037826   -0.45277050970574   -0.43896004766646
H         2.02662078108464   -2.54527405323564    0.09413386769544
H         1.58880139492326   -1.35226790887805   -3.60501926632533
H        -1.95603877103928   -1.42302522187248   -2.25736815559182
H        -5.81254424348908   -1.97076230870931   -0.48570388636438
H        -4.77127571856491   -3.15349082522253    1.40615850681774
H        -2.32010701451105   -3.47788760420538    1.46693274178327
