84
 energy: -136.994245068358 gnorm: 0.000344945324 xtb: 6.3.3 (4ae9cef)
C        -3.09467253722911    5.35625098575991   -1.31709817429290
C        -2.29367888335638    5.62320803006416   -2.38934712440257
C        -1.35466712837576    4.67100318145447   -2.80841575418618
C        -1.22488638863208    3.48181434663429   -2.14806303091694
C        -2.01757357620680    3.17844358907377   -1.01882754453424
C        -2.97983597048585    4.14228339510893   -0.60751336770612
C        -3.79368531806261    3.88544698935549    0.51432356295582
C        -3.64741476651513    2.73137637992460    1.22820997685618
C        -2.67746716922059    1.79506286453284    0.85213670735157
C        -1.88659188802661    1.98901034939595   -0.25222387901797
C        -0.80042590415788    0.99060155715307   -0.55780745773942
C         0.45980788396065    1.29715384166467    0.27724096926414
C         1.40923651705332    2.17323753150712   -0.49546253561428
C         2.24070450325758    1.60031485621909   -1.42409228050481
C         3.08766054470044    2.37286105274892   -2.22645397270082
C         3.06673436154535    3.73352335827411   -2.12247048684862
C         2.20240930207271    4.36922235018439   -1.20825635840595
C         1.36598718823225    3.58778023393118   -0.36327963547213
C         0.51464726993227    4.27164309928786    0.53278898407743
C         0.47330976380987    5.63681034181794    0.57140713553326
C         1.28931210641849    6.40167062416213   -0.27319000971609
C         2.14177687235509    5.77697447078760   -1.13656535971176
N         0.98922600635810   -0.02492560302540    0.59125158814585
C         2.13203781430331   -0.14761435271029    1.33351773705970
C         2.40854517731729   -1.53369176394808    1.81960742139138
C         2.62144937318843   -2.62331231219940    0.93796979472071
C         2.73662509590221   -2.46168347027809   -0.45877905208140
C         2.92947323342768   -3.53904635616326   -1.27691185987624
C         3.00900325914971   -4.83199490519229   -0.73894965153395
C         2.92429746107992   -5.01926714675264    0.61132309626732
C         2.74603746267243   -3.92641741338415    1.48526565362361
C         2.70491787379707   -4.09408366192417    2.88444388489849
C         2.57832389378970   -3.01603805204543    3.71376810446581
C         2.43102650972678   -1.73008600660420    3.17868834762310
O         2.82447024902784    0.81001653880415    1.59996930418810
C        -0.03251847445146   -1.04170991141303    0.48148760231966
C        -0.45310427079884   -1.58750306347202    1.86168187713423
O        -0.92328474891283   -0.61954205519431    2.64603512278505
O        -0.36436022358651   -2.73407706998631    2.20160849751810
N        -1.13077596414862   -0.37481413053882   -0.17743258879763
C        -2.27488474038072   -0.97984568034257   -0.60520789156250
C        -2.45936244712941   -2.35068197629236   -0.03138172395657
C        -3.32550203472192   -2.50274776053269    1.02186400883402
C        -3.46356649650886   -3.74563279986415    1.65492808516724
C        -2.72727503328781   -4.81693311492345    1.23485996736233
C        -1.85609744897554   -4.70678382271440    0.13182259781098
C        -1.73707285403647   -3.46014386149133   -0.53363330913614
C        -0.90282204005736   -3.36624932725596   -1.66831572237201
C        -0.19593205424329   -4.45134043658093   -2.10450574780318
C        -0.28397726696458   -5.67515633525805   -1.42405694668218
C        -1.09975939520019   -5.80142600979453   -0.33576358666975
O        -3.07748103139182   -0.41619659801690   -1.31484881223313
H        -3.83045038392609    6.07609014063481   -0.98735879081144
H        -2.38067342445870    6.55849697409078   -2.92222394616009
H        -0.72811290521503    4.88257691552309   -3.66228377180410
H        -0.49108611689980    2.77563526000907   -2.50232517103366
H        -4.52733164058501    4.62428167429185    0.80324021772184
H        -4.26538305230092    2.53604789724993    2.09232834751691
H        -2.54962479762774    0.90445138431255    1.44975224249141
H        -0.56035970135545    0.99790013959726   -1.62762797373626
H         0.17450314468689    1.77767992118558    1.22023382721625
H         2.24503815168047    0.52674279024089   -1.54388372992852
H         3.74270060914953    1.88255668352015   -2.93145417512468
H         3.70329227697391    4.34459783660951   -2.74605599871910
H        -0.12955335756944    3.71986700664403    1.19856370642510
H        -0.19491236439300    6.13485707157299    1.25828789354765
H         1.24147602469174    7.47960266798711   -0.23009970863939
H         2.78404204151767    6.35215792720522   -1.78834960450853
H         2.70132546946478   -1.46387696172819   -0.87037213075360
H         3.02986521133868   -3.39935812267974   -2.34327157110503
H         3.15438840562277   -5.67323095924150   -1.40020225556159
H         3.00604533853609   -6.00982045981806    1.03487262088441
H         2.78844508734979   -5.09227755513360    3.28891899533136
H         2.57241387789563   -3.14561327296031    4.78573282776935
H         2.30680935439502   -0.88219688690271    3.83723529567943
H         0.33083435441540   -1.90444492758576   -0.10190983749948
H        -1.17320573305304   -0.97037647628716    3.51679033492198
H        -3.89181086001913   -1.65212099710361    1.37424370336132
H        -4.14354920421417   -3.84020088471713    2.48868219639732
H        -2.80630215541253   -5.76898615239551    1.73910057618640
H        -0.85361428772049   -2.42708162588505   -2.20248390997233
H         0.43200664053052   -4.37499255919646   -2.97957357897054
H         0.28920570911243   -6.51946093591998   -1.77718608818919
H        -1.18476538067528   -6.74626848308611    0.18133229415932
