78
 energy: -134.511881393262 gnorm: 0.000570695907 xtb: 6.3.3 (4ae9cef)
C        -4.72141533096738   -4.13204286309354    1.39897055120207
C        -4.20397792687370   -4.57364581051078    2.58214669983356
C        -3.02051465949398   -4.00649752074210    3.07395091693247
C        -2.36474560436504   -3.03722466782011    2.36750267478783
C        -2.85079353607465   -2.57356159253307    1.12425833710501
C        -4.07520584361111   -3.12469763739468    0.65156158512737
C        -4.64307611281885   -2.65016910563700   -0.54776462320199
C        -4.03688591109388   -1.65169612126363   -1.25308517130412
C        -2.81873895710309   -1.12349692343039   -0.81072713553594
C        -2.21012583357485   -1.58090803472262    0.33293009103505
C        -0.87576005816541   -0.99124601733386    0.70657315715466
C         0.22821663067260   -1.16734524584785   -0.35699030334004
C         0.93299756027165   -2.49017869308733   -0.47033457875574
C         0.57208651412027   -3.57017952308870    0.29088962089259
C         1.24576670660645   -4.79467281830631    0.17711219655082
C         2.28653730112881   -4.93217614046510   -0.69316516738453
C         2.67131875176255   -3.85672295397220   -1.52030654212871
C         1.97308671049483   -2.62313731339117   -1.43425849195075
C         2.35079193220946   -1.58696606933677   -2.31544470995119
C         3.38137221604611   -1.74740351429428   -3.20016219995997
C         4.09027650128877   -2.95491329194512   -3.25675970269163
C         3.73310274964810   -3.98888528567908   -2.43914087708433
N         1.11819403483672   -0.03318213216043   -0.04125248458429
C         2.20584179983710   -0.19103200128727    0.79381390388023
C         2.84868629955249    1.10454259071839    1.14341293168163
C         2.96156374139264    1.68881449929843    2.36519627502267
O         3.61140994585295    2.87002829236914    2.31522314143189
C         3.96441353741839    3.06639966285493    1.02392090275944
C         3.52168594650191    1.98789059037762    0.23127308211058
C         3.81971282527570    1.95386040488491   -1.13216953613958
C         4.51409009892777    3.01967684688416   -1.66538470069966
C         4.91703131407509    4.09728216758744   -0.87372731328056
C         4.66032700301249    4.13649610900980    0.48214949370272
O         2.65035106669169   -1.25709801170231    1.13767340572340
C         0.20194370964120    1.07545450282364    0.13511272266650
C        -0.16907213260016    1.68001497643820   -1.24493533785997
O         0.86282516813194    2.19910030114698   -1.90412027271616
O        -1.27762827783829    1.68355352338553   -1.68653633351136
N        -0.93577875125191    0.47395329418305    0.79784743034672
C        -1.82596535941261    1.10834444188758    1.60478754727693
C        -1.72096089755402    2.59110579906887    1.55810503415983
C        -0.93808647861832    3.41763964041291    2.29638958383687
O        -1.12232689647350    4.72262991099655    1.98615503951413
C        -2.06849262398220    4.75567142022746    1.01510622468806
C        -2.48988320350723    3.44961697430229    0.70116807223668
C        -3.46496586608744    3.24044517507747   -0.26989604083388
C        -3.98430109113950    4.34775584670044   -0.90255270123476
C        -3.55491231086966    5.63905143576061   -0.58680081598150
C        -2.59244831659352    5.86854389049307    0.37547084943963
O        -2.64028527265086    0.51110781899884    2.27045182554133
H        -5.64533959132987   -4.54166784985734    1.01573312394713
H        -4.70518212438673   -5.34322861554326    3.15045670202045
H        -2.62971735007993   -4.33657504906515    4.02548076909523
H        -1.47551838543230   -2.60600143984398    2.80082284891135
H        -5.57482639988676   -3.08032133154585   -0.88621736095516
H        -4.48161763653685   -1.26494956730889   -2.15787871067723
H        -2.36867731332327   -0.32441740467791   -1.38097042700755
H        -0.51674963029394   -1.37270661866032    1.66745702697935
H        -0.21553604229731   -0.93688034066347   -1.33662578579941
H        -0.23978488500285   -3.50014043983810    0.99498913060988
H         0.93583127273560   -5.62034138863845    0.80004663191352
H         2.82748417328460   -5.86440304103789   -0.76802977622043
H         1.80873970564569   -0.65339137529597   -2.30872578532359
H         3.65162259235935   -0.94239089426033   -3.86906205932729
H         4.90658749583499   -3.06214760743684   -3.95571028662280
H         4.25930910019938   -4.93170490382486   -2.48457720530771
H         2.60906237067994    1.36786456612823    3.32633423443056
H         3.56591551796064    1.09231399409445   -1.73281005947325
H         4.76078643516043    3.02023332066850   -2.71573256502389
H         5.45726189987384    4.91085587897827   -1.33186502191482
H         4.99040447143823    4.95293843368446    1.10317569824040
H         0.64383675948049    1.87537253653845    0.74576309080526
H         1.72434726354793    2.09925573417021   -1.45530196581323
H        -0.22535623768241    3.20808520641841    3.07161935416648
H        -3.79114588120139    2.24168393049517   -0.50959328100128
H        -4.74122631130222    4.22116918806460   -1.66149842331510
H        -3.98868799052267    6.47908615138667   -1.10787436909857
H        -2.25910309160192    6.86250810003271    0.62695821524122
