72
 energy: -162.011260134080 gnorm: 0.000482265164 xtb: 6.3.3 (4ae9cef)
C         2.16170929947819   -0.71501939561101    1.29029633884408
C         1.89925268457326   -2.18239550548676    1.07491347801403
F         0.58705250461518   -2.47933848981717    1.20117676126162
F         2.53792645490528   -2.95875908780992    1.95271745988661
F         2.25207435388267   -2.63323602190940   -0.14257085587577
C         3.01959844159148   -0.34675716665322    2.32180647172881
C         3.22688224506146    0.98781618191311    2.61431843643482
C         2.55611106093580    1.96166686002503    1.89388751057542
C         1.71757307722923    1.59890679197730    0.85733292699563
C         1.52707216374370    0.26181135875290    0.51953663844170
C         0.62905643693043   -0.05476694620114   -0.65515553111958
C        -0.85156765682891    0.26002978362502   -0.30115779207024
C        -1.70119836929133   -0.95204234900285    0.01677681957441
C        -2.19299992929981   -1.87866729135454   -0.90863507850375
C        -1.93959024985720   -1.78846596089104   -2.39282893515111
F        -2.63283709023962   -0.79120296764590   -2.97417522981546
F        -2.29919751311291   -2.90318489949147   -3.04122511599306
F        -0.65032928343515   -1.58874640761988   -2.71726347796576
C        -3.00309082691638   -2.92773510663035   -0.48241565775308
C        -3.32123286575135   -3.08332265333405    0.85233463917312
C        -2.82052988100216   -2.18882142073004    1.78021768934892
C        -2.02496322480091   -1.14248420353638    1.35791825003175
N        -1.33037314803810    1.07146027312756   -1.40442622990010
C        -2.49182935910243    1.77942172619568   -1.39646133441274
C        -3.44023339644079    1.37838931213141   -0.30352250751132
C        -4.46133195520042    0.47927125623761   -0.58391406615444
C        -5.31685828079064    0.06665870749877    0.42031609866878
C        -5.15974112847882    0.57509084749178    1.70215875162357
C        -6.02333689828065    0.07176388741658    2.82384987401822
F        -6.32760594719793    1.02245696739409    3.71791244754070
F        -5.39576959592360   -0.90401803220894    3.51983862183294
F        -7.17995893572541   -0.45609172570829    2.40827136849327
C        -4.17673244067107    1.51646027239327    1.97742102131625
C        -3.31998562234748    1.91999812884287    0.97013572257823
O        -2.73776732012201    2.63325455362320   -2.21428569796370
C        -0.30170917166001    1.35301968402691   -2.38303668810496
C        -0.19003434301165    2.86603682238131   -2.68428989114506
O         0.04431332924204    3.55131327542452   -1.55447832621694
O        -0.33017049887483    3.35730421610912   -3.75799097672990
N         0.90411473191471    0.82084644610036   -1.78396604667743
C         2.10796456565671    1.30608029862989   -2.18176973508608
C         3.31582806872582    0.62150535930024   -1.62895565935627
C         3.53653361183249   -0.72867345715400   -1.86545114352756
C         4.66595438459465   -1.34515081054172   -1.35593219838168
C         5.57033502326940   -0.60296485186980   -0.61139861393438
C         6.75333102942246   -1.25947066427855    0.04191414216989
F         6.98090801469646   -2.50471310097455   -0.38534784938020
F         7.89222975997388   -0.57304222806218   -0.13875314887631
F         6.58158605390803   -1.34253689356121    1.38041569668462
C         5.38426649891429    0.76135787872197   -0.41851114464043
C         4.26554066058719    1.37387762503788   -0.94508454452370
O         2.18845838792323    2.23874498933144   -2.95286062307212
H         3.52352093137623   -1.10872545378550    2.89500390991767
H         3.90014223986507    1.26114026051098    3.41077019931437
H         2.69086973770650    3.00487514165136    2.13427901863369
H         1.21319813170821    2.36155058435628    0.28161523271927
H         0.73462737404325   -1.09968621864753   -0.95681034505454
H        -0.85019257064597    0.87955055131972    0.60729134963026
H        -3.38400750142920   -3.63036499733263   -1.20691419072094
H        -3.95288286709785   -3.90007900206238    1.16244380908546
H        -3.05674675022076   -2.29695703535248    2.82667087666014
H        -1.64093259527588   -0.44687788774357    2.08870223531591
H        -4.57937911905045    0.10348532673802   -1.58752446971542
H        -6.10325201907918   -0.64184809711660    0.21241322405726
H        -4.08728965747118    1.92655452312717    2.97167936252321
H        -2.55986210152154    2.65940753638274    1.17369095487189
H        -0.51991177142419    0.86098567763431   -3.34433373732759
H         0.09601013035464    4.49705243702250   -1.76504221265289
H         2.82960842684251   -1.30093652457944   -2.44521289944391
H         4.83435559747623   -2.39675097330537   -1.52604338204338
H         6.11530463148852    1.33065747519050    0.13451033240856
H         4.11212184111861    2.43403281034509   -0.81990433360612
