68
 energy: -116.937779532764 gnorm: 0.000868493757 xtb: 6.3.3 (4ae9cef)
C        -3.34068747112434    1.23527679647555    0.91709872326904
O        -2.54599929829146    1.70283618816960    1.92203663957023
C        -3.00662759310844    2.79320580328480    2.68336265773193
C        -4.66599102347421    1.59646177770296    0.72979333565233
C        -5.39378486808257    1.04538722673994   -0.31213684728564
C        -4.80838405071082    0.13658201612810   -1.16945108997920
C        -3.47981206794977   -0.21955120075920   -0.99493804430677
C        -2.73600931126659    0.32152444219715    0.03585961068103
C        -1.30211867242906   -0.02753041870822    0.30992877569156
C        -0.66919446189984   -1.19966807094073   -0.44979636847389
C        -1.02398919324077   -2.54817753387593    0.11174191426137
C        -0.62302345286284   -2.89965004887861    1.38950111334881
C        -0.92373120829424   -4.14278440918413    1.91635877324112
C        -1.63116745323162   -5.04882657161243    1.15016580764687
C        -2.03483380089743   -4.72015756674461   -0.13198134797891
C        -1.73642440259005   -3.47199483229174   -0.66539976846426
O        -2.10076028886744   -3.06813927022898   -1.91445273090590
C        -2.68750208382669   -4.00738380841848   -2.78364010385782
N         0.75739806284080   -0.90981183903813   -0.27570920008915
C         1.70379802516330   -1.79338573740911   -0.70957673713757
C         3.09699478726396   -1.42065028077810   -0.39026951905880
C         3.64558847653454   -1.15857264322958    0.83275781354820
O         4.95669101990928   -0.91366894431362    0.71850809811260
C         5.27799208947001   -1.00581149880278   -0.58944283473230
C         6.68216640641461   -0.74094994926753   -0.99494146415897
C         4.17435197144325   -1.33318779998127   -1.31656888414962
O         1.39988081679856   -2.80831990194527   -1.29907796043683
C         0.98191701013804    0.47070125590747    0.13500862559738
C         1.96103257843935    1.14693172906031   -0.85474745725549
O         1.53727010318608    1.13113880022310   -2.11774084490010
O         3.02211594739141    1.59687629828426   -0.53902675310573
N        -0.34051014148426    1.04930556201097    0.05505181158567
C        -0.61639350558673    2.34317308528572   -0.28549556977588
C         0.51790446903720    3.26636030820690   -0.07113447573307
C         0.97942620837486    4.21928892365868   -0.93568689396507
O         1.98434664402305    4.90681572285292   -0.38541822442065
C         2.17643802987574    4.42825407220069    0.86267732854472
C         3.25823013873948    5.02014068508521    1.69028906983564
C         1.29794501178595    3.41926418723275    1.11271983376775
O        -1.68701005944442    2.70942864489191   -0.72072444984790
H        -2.17534280870727    3.07525017518887    3.32850386435279
H        -3.26890939922177    3.63834083944419    2.04063512836456
H        -3.86653323799038    2.51929006972845    3.30357467509343
H        -5.14153894433900    2.30720677424528    1.38659726110061
H        -6.42525736017201    1.33536973066180   -0.44699030005248
H        -5.37690477753707   -0.29285926740189   -1.97998051121286
H        -3.03344366243091   -0.93153753080983   -1.66911733572299
H        -1.23013004677669   -0.24685183797209    1.38793370226007
H        -0.92152034731271   -1.17923056374944   -1.51595986175289
H        -0.04965181547544   -2.19424686817095    1.97387695643470
H        -0.60098193170677   -4.40284953348423    2.91261806809281
H        -1.86881309149528   -6.02528285860171    1.54508469305544
H        -2.57721206914220   -5.44920154243471   -0.71244110110083
H        -2.03798475243242   -4.87488884137215   -2.92991624125549
H        -3.66636390483841   -4.33533745064781   -2.41894596312092
H        -2.81462459127416   -3.48890385129368   -3.73312705757908
H         3.22835932194605   -1.15515309185782    1.82013409915713
H         7.37010204769208   -1.30243766497588   -0.36557727628194
H         6.82467168230212   -1.02666414148642   -2.03220532845488
H         6.90969863515120    0.31874944781111   -0.88500379760540
H         4.10961458012195   -1.47927041529757   -2.37436422816976
H         1.40901579391225    0.52227875724587    1.14975081240616
H         0.65403439051267    0.74214470722606   -2.21325931528695
H         0.69290984477346    4.46004528623928   -1.93959339268593
H         3.14718460962018    4.70721595690753    2.72364494187479
H         3.22656570306367    6.10581645579663    1.63259543993972
H         4.22853235791213    4.68809884663694    1.32387064151118
H         1.19698738573247    2.86417521322421    2.02216406453814
