66
 energy: -120.840012551680 gnorm: 0.000422487697 xtb: 6.3.3 (4ae9cef)
C        -2.57872934675231   -0.08142776486045    0.93148455016455
C        -3.85560092124203    0.08105605865149    1.38268860952348
C        -4.66098780276906    1.13379818650412    0.90050858361668
C        -5.98558711140166    1.32962475742477    1.34222254870848
C        -6.74128821006141    2.35558259119636    0.84779578240415
C        -6.20753176137376    3.23165683165118   -0.11060530632940
C        -4.92610360112352    3.06957529867777   -0.55703949335206
C        -4.11999663677480    2.02142233143606   -0.06612905733256
C        -2.79639624761438    1.82695428713932   -0.51001331109337
C        -2.03452471631243    0.79939029068769   -0.02375190862032
C        -0.61949788065351    0.58798265749072   -0.49662573314802
C         0.41795946105918    0.68019149938529    0.65097640036022
C         1.62067653732789    1.52651239437257    0.31082837351675
C         2.89525012774725    1.08882572443482    0.55467112343791
C         4.01564786058540    1.87933672959258    0.22717820837288
C         5.33443890437013    1.43524824508798    0.45661680850842
C         6.40221921594979    2.22180065454629    0.12596846192297
C         6.20052158343325    3.48638829297707   -0.44892094245177
C         4.93398158969878    3.94505848315782   -0.68177407986607
C         3.81200555622848    3.15832502599383   -0.35077572208391
C         2.48893688369852    3.60229499412194   -0.55639666294809
C         1.42426122583375    2.81212782448180   -0.23285376814038
N         0.77393263375450   -0.71163309706440    0.89910550482788
C         0.64565224209215   -1.23210332395335    2.15701317812183
C         0.69779122742317   -2.71422253790399    2.26431517170123
C         1.66613012058481   -3.53512081933751    1.76812497098123
S         1.40711681760279   -5.18318665302094    2.17482672281921
C        -0.03019576379148   -4.78803993183066    3.02416526989183
C        -0.27402398197796   -3.45217776475648    3.00051890991161
Br       -1.78438909474813   -2.67443981975747    3.80888134669148
O         0.51046753636297   -0.52296580647471    3.12727695961769
C         0.65637345567010   -1.42288429486137   -0.34156179601868
C         1.92990403193294   -1.26977946369657   -1.20405098242316
O         2.98744964487233   -1.84522899335167   -0.63507232585149
O         1.95381622819905   -0.73680142733591   -2.27486545062054
N        -0.45201068761636   -0.77601752061043   -0.99734448321725
C        -1.01127796866045   -1.14325556414719   -2.17723432026520
C        -0.70046373000158   -2.54358694950234   -2.60053197148950
C        -0.07425669143444   -2.85147443312575   -3.76726112171884
S         0.07385095112571   -4.54483507946246   -4.01467513352325
C        -0.74093083388577   -4.87059996981201   -2.54017146028733
C        -1.08845571576980   -3.72154720558232   -1.90296305561835
Br       -2.01118876581704   -3.70997810001065   -0.25078033936616
O        -1.73510224775289   -0.41725710878520   -2.81789771707786
H        -1.97942327464536   -0.89674031936480    1.30585045610616
H        -4.26143123682510   -0.60006152584108    2.11614649588396
H        -6.39077390209266    0.65133710937932    2.07941215590382
H        -7.75579482680443    2.50007888448883    1.18975589127271
H        -6.82041277545960    4.03533669448856   -0.49220539231354
H        -4.51167631384255    3.74011630365131   -1.29630217235882
H        -2.39450207402910    2.49794725094081   -1.25580594214252
H        -0.38959649916607    1.28721817675345   -1.30777859732700
H        -0.04532491494620    1.07176489131346    1.56551298511862
H         3.06470810239761    0.12921193498498    1.02210596028897
H         5.48453648044038    0.46286996414650    0.90524631557291
H         7.40990413540067    1.87703254032856    0.30648847903946
H         7.05639946932645    4.09369985993584   -0.70399556355034
H         4.77338903297773    4.91847606118645   -1.12251472661046
H         2.33069966524787    4.58698471598072   -0.97167342302333
H         0.41717125666305    3.17459427300643   -0.37538890675442
H         2.53419641691705   -3.25604720215073    1.20496984317602
H        -0.61581081069641   -5.55294089565896    3.49191411654762
H         0.49618013650344   -2.49313041088357   -0.16825701574145
H         3.78354248300631   -1.71142075784379   -1.17721205440826
H         0.31988892323792   -2.16311348940693   -4.48707153510251
H        -0.92571559163538   -5.87780258922291   -2.22506871185101
