60
 energy: -134.989363306778 gnorm: 0.000327225630 xtb: 6.3.3 (4ae9cef)
C        -3.27270006643516    1.27597502953132    0.57019448659165
C        -3.31549134812987    0.82640884621626    2.00480020147146
F        -4.50186237034030    1.03895041722970    2.58478031989275
F        -2.40728610871841    1.43080168324014    2.78948120091123
F        -3.07909983075660   -0.49986267001937    2.13275912347974
C        -4.41272092988015    1.84800335385931    0.01935760018564
C        -4.42236812655000    2.25075724647558   -1.30221740873352
C        -3.29269767700199    2.07584125870232   -2.08160105612770
C        -2.16020270304803    1.50503639178936   -1.53466997326825
C        -2.12599959136752    1.10405140799962   -0.20429171625317
C        -0.86117330837258    0.47575794464428    0.32425225832214
C        -0.60730726636401   -0.92071840597179   -0.28124644169442
C        -0.97455202674995   -2.02832085228876    0.67506948089196
C        -2.06101016535922   -2.87736354132270    0.46392540037501
C        -2.94483157753495   -2.72248925695194   -0.74174001609490
F        -2.29814364713227   -2.87054187053785   -1.91301487981320
F        -3.95691906990982   -3.59504579967614   -0.76967499805995
F        -3.51848865765547   -1.49633459499118   -0.80451745393784
C        -2.36433395653707   -3.87167564574661    1.38558218086708
C        -1.59290497648899   -4.02683090077741    2.52121754606398
C        -0.52018694417172   -3.18188051239056    2.74369525821996
C        -0.21804908026183   -2.19070801388930    1.82978703637937
N         0.82277812257520   -0.91279353775149   -0.57617001113028
C         1.50706783375564   -2.05897013617433   -0.83658132014813
C         2.96207034624488   -1.84597496780921   -1.07222521748383
C         3.98412893586406   -2.28399424691790   -0.27985747341472
O         5.17167073842471   -1.93155474218015   -0.79892880946147
C         4.91398149949244   -1.28433958935631   -1.94455822981764
Br        6.36664763119878   -0.64443818138288   -2.91476166632609
C         3.57592503420143   -1.19110866975113   -2.17759251249171
O         0.98310521919049   -3.14620252696009   -0.87128787535352
C         1.41107750086748    0.39896247288356   -0.47090517184099
C         2.51007061848766    0.41171396044734    0.61755688183336
O         3.63972951605117    0.95500086843372    0.17293077511894
O         2.35451174921798   -0.00165274223713    1.72985160698602
N         0.30799368217788    1.24661513023795   -0.09115964371123
C         0.37196963147016    2.58604589464977    0.15501607435933
C         1.66297033282238    3.22545706814676   -0.21568502083519
C         2.20286656718698    3.42106022366232   -1.45528997354862
O         3.36531771470287    4.08645245939080   -1.36647997190364
C         3.57507885311953    4.32205459453371   -0.06450982319263
Br        5.14768860988237    5.19963827685364    0.40470106997711
C         2.56477161590130    3.82933905194382    0.70418857550319
O        -0.55375371816932    3.20251438305666    0.62538994742865
H        -5.29249571823372    1.97601393840180    0.63009595066514
H        -5.31096026353263    2.69633160883825   -1.72063016493409
H        -3.29343984577820    2.38186305611703   -3.11658712824189
H        -1.27893554024821    1.37224832039085   -2.14513800679088
H        -0.87045933011291    0.41378285950867    1.41711403681214
H        -1.14663542977413   -1.01936027359884   -1.22877157596807
H        -3.20667642848739   -4.52211453504208    1.20989231306600
H        -1.83357810578508   -4.80336702982299    3.23015780698071
H         0.08316446956344   -3.29076548065371    3.63179786711300
H         0.62272715460137   -1.53737053374810    2.00995229752798
H         3.98355165116353   -2.82261682525795    0.64601739285006
H         3.10163364944452   -0.75015076455445   -3.02920815133398
H         1.86113016956075    0.73266483604898   -1.41792135773440
H         4.32009081956920    0.98188327557549    0.86850817306638
H         1.85690833248305    3.17362167748214   -2.43876531333907
H         2.46463580966602    3.88369731147573    1.76791150005119
