62
 energy: -125.144907873422 gnorm: 0.000605014095 xtb: 6.3.3 (4ae9cef)
C         3.12559600689016    0.87089641768308   -0.50748694758484
O         2.85737628013893    2.01582960854109    0.18349969347176
C         3.87902413078363    2.97526300926151    0.32480924613936
C         4.34152524657892    0.59008511644936   -1.11901675334288
C         4.51833787030148   -0.59718650526666   -1.80886296526674
C         3.48919903190683   -1.51418433798523   -1.90466539848730
C         2.28005458483780   -1.24364242770031   -1.28928806639816
C         2.08620072383414   -0.06742448447563   -0.58395697219344
C         0.76921509868603    0.19797398771724    0.10243904205231
C        -0.40263494186008    0.36392827665068   -0.90140952416995
C        -1.18458713200635    1.63501258809844   -0.63978351245493
C        -0.47482206588346    2.82181020752740   -0.77192946161834
C        -1.06897897716803    4.05157431430972   -0.56517548348453
C        -2.40770798935952    4.10297416186708   -0.22727418631556
C        -3.13603296661534    2.93572313546764   -0.09953023427891
C        -2.54184496660819    1.69209343807286   -0.30054678147418
O        -3.22755373945069    0.51465485537474   -0.18296692508871
C        -4.59785249475088    0.56388482111210    0.13686574588344
N        -1.13983971912218   -0.87767521729381   -0.77289868239772
C        -1.85200760842447   -1.37437512809217   -1.80902198807508
C        -2.53535444310250   -2.68273722441450   -1.55625017462948
C        -1.91848609112454   -3.89013773638985   -1.40958858666358
Cl       -0.23711191599436   -4.19690203109606   -1.41409766472787
S        -3.04440166480399   -5.20071252282895   -1.22145454757666
C        -4.36549333448409   -4.08303945700203   -1.36917173501335
Cl       -5.97833819994667   -4.62634979187053   -1.27908885020862
C        -3.94772380868231   -2.80385674963818   -1.55131877113457
O        -1.93840804035351   -0.80284401502969   -2.87253384171575
C        -0.94002017662325   -1.43678115175564    0.53203631641513
C        -1.97644383737026   -0.95462395342926    1.57254109267112
O        -3.02306450637221   -1.77222916168795    1.61626858885126
O        -1.82159761524689   -0.01232217709316    2.29489612651605
N         0.36249726855540   -0.94278932756821    0.90551670802878
C         1.05382311883250   -1.53100258914232    1.90359776510134
C         2.34066447177247   -0.84572907977035    2.23855429234735
C         3.57389594060506   -1.37676635505543    2.00862193790555
Cl        3.91348995704944   -2.85059785498415    1.23324042115227
S         4.85526037121109   -0.33461353248822    2.54830738046468
C         3.67931176071958    0.81147828917828    3.12540983979209
Cl        4.17229466968342    2.25133508637054    3.89192220428740
C         2.40337193946087    0.41261801172704    2.89095833384692
O         0.65409755551355   -2.52112466174493    2.47742341817022
H         4.75332346626685    2.56118083551497    0.83507267362988
H         4.18023201508693    3.38499571615777   -0.64420397389413
H         3.44939636176459    3.76817186125666    0.93452295173664
H         5.15948671910916    1.28973945825384   -1.06127525971833
H         5.47103166092365   -0.79974182678780   -2.27382964596597
H         3.62633640794970   -2.43628287908205   -2.44704062653472
H         1.47258077627228   -1.95737541011975   -1.34864973328299
H         0.85955544228052    1.09091221452173    0.72720731799790
H        -0.02862008703477    0.41337432189968   -1.93197671300123
H         0.56969133577258    2.76945076380756   -1.04007899664628
H        -0.49382925387731    4.95778137901734   -0.67069299785937
H        -2.89549616708863    5.05187520606137   -0.06336322446234
H        -4.17961694065727    3.00482151794373    0.16057915125225
H        -4.92401803202762   -0.47471400479262    0.18354609803829
H        -5.17006763283104    1.08791981786108   -0.63462988039524
H        -4.76703135972241    1.04189669683808    1.10760520448611
H        -4.60522201645550   -1.96722106738337   -1.69119245037556
H        -0.95974805635316   -2.53196491064259    0.53995466437880
H        -3.64649297076522   -1.49507114528258    2.30800113358063
H         1.53358053937793    0.97276860335397    3.18085020824057
