84
 energy: -140.891571157031 gnorm: 0.000232600709 xtb: 6.3.3 (4ae9cef)
C        -4.20539531964566    3.27281404063087   -0.10706327171154
C        -4.01815398457099    3.54655147651643   -1.43108857550433
C        -2.98534638645737    2.91040691473160   -2.13352685437696
C        -2.16806115755506    2.01025361905904   -1.50946519316421
C        -2.32828197069238    1.70439901108058   -0.14010750730055
C        -3.36888315262961    2.36242179997616    0.57178498180384
C        -3.54915202086031    2.10569143877232    1.94620777858126
C        -2.71491928422949    1.25257901439774    2.60850903861640
C        -1.69058440387131    0.59715827726496    1.91415578620460
C        -1.50788582474527    0.78250531379049    0.56603403674636
C        -0.41390239847254    0.01745815927249   -0.13689697013086
C         0.95745655770610    0.69773867361292    0.09478538552692
C         1.34704257429282    1.51534441492059   -1.11417531240930
C         1.98658197878324    0.90098749754281   -2.16132840223975
C         2.30611932396017    1.60626958245429   -3.32849867303167
C         1.94921346735461    2.91743460019969   -3.45648071921421
C         1.26456597593272    3.57883443715131   -2.41638545309599
C         0.96584238893497    2.88153381084722   -1.21254966769897
C         0.27981093916545    3.58705722392036   -0.19870840983334
C        -0.10860201163821    4.88561845648570   -0.37328031574483
C         0.17551364636566    5.56248276652686   -1.56701168869722
C         0.85669867981717    4.92164384556822   -2.56125102726152
N         1.86278019632366   -0.40274351718199    0.38260202400123
C         3.19255116106037   -0.14933967172119    0.54678234563686
C         4.08102509810214   -1.29579496118077    0.76885099650941
C         5.43823508680710   -1.34574149395773    0.58590936514403
C         6.35370268525438   -0.25505794892974    0.17098525047931
C         5.81668901444928   -2.69970958472475    0.86127968753185
C         7.02152017954320   -3.40103039055442    0.84845173445083
C         6.99755831211183   -4.73842914944129    1.17580841389241
C         5.80580156498730   -5.38505026645840    1.51238196216115
C         4.60026337957136   -4.71332018459002    1.53505903770012
C         4.62698037717885   -3.36802105349401    1.20401754774560
O         3.57838993457038   -2.51607826376717    1.15562470644167
O         3.61411059375550    0.99311922654896    0.48417457190661
C         1.18335727243845   -1.65478742564571    0.52581588586882
C         1.65380810774429   -2.69589704505477   -0.54089187086593
O         1.23389962227837   -3.92339460252310   -0.32208692217559
O         2.32991823437023   -2.37689771994945   -1.47661652869255
N        -0.22508828258803   -1.33723566303025    0.35791902450920
C        -1.14972248978575   -2.24335954175481    0.73260341366538
C        -2.56284809162686   -1.89346331186404    0.57241716953078
C        -3.60423875111695   -2.17307039744726    1.41538963755847
C        -3.57696754297004   -2.95454950534660    2.67625920168622
C        -4.73794582005889   -1.50622819438644    0.84912243589285
C        -4.27242610973020   -0.89454251050857   -0.33070066711716
C        -5.09893140903892   -0.13712323180845   -1.14571154141571
C        -6.41094463881076    0.00606128371058   -0.74383514199528
C        -6.88952454766222   -0.59349259812976    0.42381867912660
C        -6.07047582512457   -1.35338469312053    1.22828371328481
O        -2.95625964416723   -1.14132812148255   -0.50045474837413
O        -0.80263460160330   -3.32249378067204    1.22500637502449
H        -4.99506403543368    3.75665666494130    0.44950097233676
H        -4.65778103719334    4.24998029458214   -1.94299229953173
H        -2.83493785431392    3.13663036900820   -3.17871690919629
H        -1.38035592527631    1.54726596527223   -2.08162379251407
H        -4.35334922907642    2.60547210728567    2.46585897584183
H        -2.83813778252748    1.06808462774451    3.66508560678812
H        -1.04712756416504   -0.08207636410333    2.45616732097072
H        -0.61546503694104   -0.04481161845082   -1.21158063420850
H         0.92460261984124    1.33995280368549    0.98317828559762
H         2.25996703228547   -0.14149811120082   -2.09255529893413
H         2.82705986436165    1.09543125353287   -4.12420878408604
H         2.17840505298888    3.46814080540706   -4.35768666528278
H         0.04523518239405    3.10386965420930    0.73658367886385
H        -0.64001632823164    5.39830868634990    0.41519406245376
H        -0.14039006689815    6.58819509148149   -1.68808011816957
H         1.09313843272481    5.43293469130125   -3.48379468296499
H         6.89658297115395   -0.54921612458493   -0.72637777618475
H         5.78983860169006    0.65225423563934   -0.02089072380662
H         7.08221563999143   -0.06288448130869    0.95816355762018
H         7.94262179481916   -2.90384616532458    0.58654337296157
H         7.91605241338620   -5.30623822280464    1.17130300574013
H         5.82924722042244   -6.43610428006708    1.75731991785481
H         3.67508521899680   -5.20660448189040    1.78578474330841
H         1.33269772248084   -2.09848411034861    1.52569653324710
H         0.55370839341183   -3.95755667030749    0.40310269358516
H        -3.82602986339567   -2.31145663062081    3.52014251983346
H        -2.59439445324808   -3.39058900104709    2.82812684750862
H        -4.31522066922264   -3.75371171342329    2.63340712125100
H        -4.72009464205765    0.32813785752099   -2.04090118717241
H        -7.08445850663862    0.59853394365188   -1.34396187786263
H        -7.92484213867379   -0.45375579765256    0.69641094286050
H        -6.44105471068808   -1.81581133476390    2.12992686615349
