66
 energy: -121.763684919292 gnorm: 0.000744589509 xtb: 6.3.3 (4ae9cef)
C        -3.24398298320826    1.30498759226660   -4.26943065027745
C        -3.08472297287732    0.08135776279737   -4.85285624556333
C        -2.39917570325862   -0.93057255415699   -4.16679829957173
C        -1.88627344330656   -0.70481254583261   -2.92039229085050
C        -2.02429651282819    0.54972714197842   -2.28520077311302
C        -2.72210496050716    1.57301952422467   -2.98618133342698
C        -2.87445681359733    2.84603246822650   -2.40008044835745
C        -2.34086671742559    3.11382958127252   -1.17276188500509
C        -1.63905985608451    2.11860977537458   -0.48204815432154
C        -1.48930633559409    0.85837832966170   -1.00503697427368
C        -0.70077436086337   -0.16267014350424   -0.22034453494285
C         0.82025122262919    0.06397262633755   -0.32856732504632
C         1.49982233992475   -1.09361006235118   -1.02087245144035
C         1.96530498667356   -2.14962845689084   -0.27973081156965
C         2.55081972976457   -3.26711165519324   -0.88827886957035
C         2.64730735954020   -3.33107016776158   -2.24811204479086
C         2.17132768900735   -2.27420043241972   -3.05105515921269
C         1.59633753756508   -1.12631191700662   -2.43820674375370
C         1.13942469657745   -0.08589035992636   -3.27730652984493
C         1.22589173807011   -0.18536470779546   -4.63774189997172
C         1.77926206526863   -1.32499187674118   -5.23791557970761
C         2.24836750869227   -2.34287570961488   -4.45813056471775
N         1.27480979312627    0.22401823482958    1.04694424560676
C         2.45939561824356    0.87309044857404    1.24821615340180
C         2.87409521454291    1.03718256458721    2.65617480836053
C         2.89532580930982    0.12599968588235    3.67548776874083
C         3.48334140060035    0.62219327595819    4.85304164402293
C         3.91197959402581    1.90882841277358    4.70511434360815
Cl        4.65538527511510    2.87248648892847    5.90003477970150
S         3.62215323189521    2.52941215373287    3.11503508890569
O         3.14449110149048    1.25092655564696    0.32294165959893
C         0.21909304003952    0.07080709152595    2.01545813873902
C         0.09959425474653    1.33216528022387    2.89936426214234
O         0.11637430912996    1.03607123329118    4.19598931003745
O        -0.01436809102488    2.44195364051704    2.46563362040285
N        -0.96949344414298   -0.09877816533123    1.21214725462924
C        -2.23373004831032   -0.29207216246929    1.66574582798142
C        -2.37560944555022   -0.28773343391211    3.14810957344391
C        -2.01772202129891   -1.26384707785937    4.02865762504879
C        -2.37016552085070   -0.96954189740985    5.36224871190169
C        -2.99973364092162    0.23183470399244    5.46880314455069
Cl       -3.56580453750192    0.96584136562242    6.90212211168853
S        -3.18957935766326    1.02022775692068    3.93390050128320
O        -3.17041648962074   -0.46641435008402    0.91974313837877
H        -3.77119138594568    2.09562771588394   -4.78432253617268
H        -3.48312389912755   -0.11528876883784   -5.83719673549804
H        -2.27428372458913   -1.89733666850616   -4.63189260321345
H        -1.36021300761852   -1.50860302496947   -2.42985822495184
H        -3.41590173281705    3.60593212292249   -2.94504889150455
H        -2.44874754792650    4.08959016883735   -0.72386986279186
H        -1.21257057010401    2.35916151097210    0.48040764563800
H        -0.96316499638350   -1.17309341653834   -0.55124606161488
H         1.04707701355228    0.99735672932250   -0.85512499358904
H         1.88788678622261   -2.12368327635780    0.79758764717629
H         2.91461802750369   -4.07535536217144   -0.27157809421119
H         3.08615291431650   -4.19268734518985   -2.72998085724411
H         0.71010691201295    0.80493460246388   -2.84871855676626
H         0.86329632670418    0.62004542119419   -5.25871635486266
H         1.83682312368125   -1.38703027059476   -6.31435161322441
H         2.68660712058310   -3.22335586982858   -4.90612766950858
H         2.52579325085464   -0.87908116251771    3.58725857750227
H         3.58698629715038    0.05914497456113    5.76153122758344
H         0.37734431477438   -0.79775508304498    2.67586190711154
H         0.01782306577017    1.83662120447980    4.73886735623892
H        -1.53154507477138   -2.17690928867007    3.73536953559512
H        -2.16828647338752   -1.61369293230385    6.19728201545557
