60
 energy: -105.759963646313 gnorm: 0.000515293927 xtb: 6.3.3 (4ae9cef)
C        -2.80339122279499   -3.11814251524701    0.42676149958817
C        -3.94643376821298   -3.62288876792872   -0.16736864617138
C        -4.49234973477545   -2.99033728613680   -1.27058484625255
C        -3.88786578498169   -1.85487964608930   -1.78355141553956
C        -2.74100728625795   -1.35213874997954   -1.19685812772199
C        -2.19832483566080   -1.97903571423016   -0.08189247199012
C        -0.93575846866146   -1.44900450367700    0.54452246233436
C         0.28980386410108   -1.68365861398753   -0.35613966158091
C         1.12415271442822   -2.84399129857442    0.11565539273925
C         1.94096979020455   -2.71783175417740    1.23144980105330
C         2.68542905492954   -3.79428935340546    1.67753695286333
C         2.60989479619727   -5.00964542997607    1.01879743509814
C         1.78869635636336   -5.14320250448610   -0.08746257041348
C         1.04953224980434   -4.06442024451069   -0.53889635203931
N         1.02417074295957   -0.42356713615968   -0.29573004388389
C         2.13097364870901   -0.26602548894852   -1.07886892931381
C         2.74532866507863    1.09774396164735   -1.03245213677598
C         2.86691068077329    1.82473511022295   -2.21130209348746
C         3.44225896097367    3.08193904979965   -2.20053827969869
C         3.91701286612454    3.59762150581163   -1.00584347098785
Br        4.70346219860629    5.32917196783926   -0.97470401813833
C         3.83676628504770    2.87195510965342    0.17277578628255
C         3.24789332212473    1.62043468997744    0.15527253917780
O         2.58889270274137   -1.17155162686272   -1.73580725335279
C         0.23396573968320    0.65037280065772    0.25871564363448
C        -0.09384345622613    1.69756924044665   -0.84164126362245
O         0.34604762752446    2.94266130262668   -0.63500280533428
O        -0.68828279597782    1.39702473333325   -1.83226806041736
N        -0.96728319280326   -0.00046739626195    0.71839788800445
C        -2.03769793088049    0.62049254867881    1.28195048869938
C        -1.95415271645234    2.11825125723360    1.25990121732557
C        -2.71226231543153    2.81730856199104    0.32746691105113
C        -2.65902260382036    4.19811088139016    0.28033217732485
C        -1.85439958354402    4.87448679797394    1.18208034066368
Br       -1.75925358579869    6.77199492861838    1.11575143380490
C        -1.11742036901884    4.19507287796980    2.13901658277405
C        -1.17122410020747    2.81276337146371    2.17529976759074
O        -2.97798218691498    0.01525902699708    1.74033357260248
H        -2.38064275289468   -3.60791873631756    1.29184636694893
H        -4.41410754464820   -4.50841399377758    0.23642761732034
H        -5.38883491686270   -3.38005091549981   -1.72941851028120
H        -4.31015925581379   -1.35861976663456   -2.64471322689962
H        -2.27025937720502   -0.46717310168793   -1.60186640392371
H        -0.78632924768209   -1.92119648889423    1.52534146273146
H        -0.02744599384845   -1.86107159416534   -1.39200690191608
H         2.00039063767301   -1.76987419220244    1.74820336630725
H         3.32534070380785   -3.68498341692030    2.54077358886534
H         3.19222257931160   -5.84968280298655    1.36652118182614
H         1.72741858318251   -6.08888656328667   -0.60466726165201
H         0.41343623295197   -4.16622127305554   -1.40544941627861
H         2.50047797288149    1.40252194471166   -3.13379233819413
H         3.52605652243141    3.65368863256615   -3.11119665227639
H         4.23792268875902    3.27896242034303    1.08839449348143
H         3.20589962658309    1.03695519270982    1.06401550888773
H         0.76505257795814    1.13785080543985    1.09890663027153
H         0.81394330591719    3.06946966192530    0.20254935628950
H        -3.33760955839928    2.27507063949217   -0.36474142085469
H        -3.23681340170679    4.74352868341396   -0.44902525834210
H        -0.51437437711508    4.74133768951327    2.84824329730356
H        -0.61579233322289    2.27481548162301    2.93055107448898
