66
 energy: -137.478173644782 gnorm: 0.000543872314 xtb: 6.3.3 (4ae9cef)
C         0.95329652730516   -2.60556433722539    2.12101197990915
C         0.62883251132850   -3.68972536881732    1.13230315903001
F         1.50067649000922   -3.77828320905025    0.11272988431819
F        -0.58225901862591   -3.50861043364051    0.54424248261208
F         0.57811586380132   -4.90667280580279    1.68119434334713
C         1.19975115378381   -2.96573024951340    3.43979294808003
C         1.48833043799715   -1.99850528570860    4.38373521315828
C         1.53143829727067   -0.66668010643504    4.01197454236251
C         1.28389463601876   -0.30473907224692    2.70130638417721
C         0.99574528040321   -1.26413183363783    1.73788352186952
C         0.72667812506930   -0.81254466312236    0.32239429554274
C        -0.61643074855208   -0.04705771657526    0.18798747985192
C        -1.66381620072970   -0.92018908036730   -0.45861055811386
C        -2.74865051576592   -1.46315553140146    0.23209559626901
C        -2.91814375797280   -1.26664908608981    1.71509057980378
F        -3.03389835033167    0.02921413710478    2.07912434774399
F        -4.00473484579450   -1.87211931247389    2.19881652135667
F        -1.87500366120997   -1.74055402357604    2.41992693785794
C        -3.67535018372865   -2.25840776466212   -0.43275639390332
C        -3.52296003924370   -2.53639319667081   -1.77743793170790
C        -2.42743859530557   -2.03897597777079   -2.46079150092144
C        -1.51191166518255   -1.24095947625675   -1.80368456983144
N        -0.27779174420215    1.10704254787975   -0.63750968694651
C        -1.09058430281960    1.89389950665085   -1.37385648083629
C        -2.55245895658626    1.63800485678906   -1.29515570570635
C        -3.24866006743610    1.24463442524927   -2.43298198690139
C        -4.60567079148056    0.99883213546296   -2.36459114630519
C        -5.26492709660024    1.17964785225034   -1.15898438028524
Br       -7.11874012672200    0.78702655754047   -1.04824319489436
C        -4.59789595549053    1.63971368537761   -0.03630065386699
C        -3.23655614604113    1.87031095620313   -0.10839207301023
O        -0.62215822440318    2.79314850954069   -2.06633155166107
C         1.15887127244800    1.32583139421052   -0.70064213555056
C         1.54725529244362    2.60805267544149    0.10640272378399
O         1.26068740474888    3.73730700574177   -0.50013500047326
O         2.06095539708090    2.53712354878925    1.18520995718877
N         1.73017694273724    0.13679934922381   -0.14307828801560
C         3.06086676912753   -0.11367527060804    0.02712320163720
C         3.97346382827436    0.91688060915980   -0.55684671838274
C         4.06819289319528    1.08394256755115   -1.93384930831447
C         4.94522325291619    2.01153538186726   -2.46565114021550
C         5.72274786279266    2.77111835728716   -1.60760477871420
Br        6.91480499286584    4.06059125265338   -2.33547298599532
C         5.65518664232649    2.60319792362322   -0.23469228384945
C         4.78511150715560    1.66443794485612    0.28765488118963
O         3.45652942005001   -1.10891028787458    0.58809858745007
H         1.16642162216222   -4.00589271280534    3.72321583357539
H         1.68162534048466   -2.28801745550028    5.40469731242110
H         1.76041793015901    0.09555659986234    4.74071099775945
H         1.34548167138431    0.73476298832537    2.41550770683135
H         0.73317057559116   -1.66788618572028   -0.36197566122595
H        -0.93139651576444    0.30294126427339    1.17647748197270
H        -4.51222425063046   -2.66820420113221    0.11029066760126
H        -4.24830096526382   -3.15427580536517   -2.28206783811387
H        -2.28293584650008   -2.27484144977675   -3.50367822551237
H        -0.66018429133170   -0.85184916629265   -2.34206363913699
H        -2.72243567053105    1.11754570572359   -3.36613202255448
H        -5.14870725108041    0.67070794893921   -3.23689534739363
H        -5.12910744090477    1.80692285807881    0.88727080729152
H        -2.71269557575516    2.23368831731754    0.76181129056995
H         1.45428996522986    1.48546594719893   -1.75286682320632
H         0.67746614996159    3.60640922237939   -1.29573624534874
H         3.47542133779873    0.47135039531067   -2.59813466591806
H         5.02603180764580    2.14236827144365   -3.53374499278041
H         6.27759614989333    3.19606248176769    0.41712653437026
H         4.71927145049861    1.51712488505714    1.35368871468333
