72
 energy: -162.008812230791 gnorm: 0.000524831965 xtb: 6.3.3 (4ae9cef)
C        -1.89622404058959   -1.79002782809424   -2.30133313541474
C        -2.44914404289259   -2.58140215635741   -3.29162342366184
C        -2.45543871882150   -3.95930731177920   -3.15511974318928
C        -1.90807328099952   -4.54209643459552   -2.02522021072956
C        -1.35977464454424   -3.75086719063276   -1.03114253957200
C        -1.35146111895845   -2.37010120091290   -1.16240247613852
C        -0.74609745069872   -1.50908746771935   -0.08166769911043
C         0.59471141443585   -0.87191576520761   -0.51289444469851
C         1.74378187202681   -1.37624179568730    0.32286090001662
C         2.74854258446495   -2.14463447538324   -0.24810532170554
C         3.80797977231699   -2.58881394295600    0.52441897838450
C         3.86695341463976   -2.27355649303754    1.87108628331761
C         2.85617890758148   -1.52239279248879    2.44884172419205
C         1.79568950916061   -1.07839728575276    1.68038243078318
N         0.37517382008724    0.55803508682180   -0.34102864219697
C         1.30561579522790    1.51560681454102   -0.15408929619122
C         2.71700531422560    1.11732868987940   -0.45750649238814
C         3.66587869057570    1.16565984044129    0.55655996054442
C         4.96157600812276    0.75094331745279    0.29883101921567
C         5.99109510625357    0.72848402918805    1.39878235708474
F         6.67285761473116   -0.42816714860294    1.41426412402498
F         5.45467795271698    0.87120508794508    2.61541767362959
F         6.90261342333227    1.70266469105745    1.25985430381678
C         5.34216248219933    0.33504227733259   -0.97090601436456
C         4.39885527140466    0.34854554983706   -1.98468757870515
C         4.74976531939073   -0.11132970183221   -3.37574866454050
F         4.07108270084633   -1.23095348288053   -3.69674101492908
F         6.04462834058715   -0.39102602098655   -3.53141131401627
F         4.42796762587567    0.79786312183641   -4.30619866196173
C         3.08659237591785    0.73057895486326   -1.73650336887367
O         1.00209987659269    2.62957914353075    0.22515254579106
C        -1.01399745491981    0.88911624210839   -0.09667964101785
C        -1.13845139252359    1.95489687738144    1.02075264160291
O        -0.59584596142723    1.52844115643629    2.15949851618813
O        -1.76600162599406    2.96660836449937    0.89991391333119
N        -1.60810568936057   -0.37814723032848    0.24442163184386
C        -2.77594214340062   -0.60613114745540    0.89470104004377
C        -3.59651828041002    0.62913968576233    1.12685128051340
C        -3.74567642265052    1.12164800510473    2.41452412754128
C        -4.44259309416600    2.30439463968667    2.61914464232410
C        -4.49604279645541    2.85295505437369    4.02024998420583
F        -3.25526627495415    2.99920597192802    4.52673325779715
F        -5.14356508205098    2.03190324773094    4.86263624262405
F        -5.09067137809666    4.04305737842608    4.10678579159911
C        -5.03110538271600    2.98045643410951    1.56245512917952
C        -4.91980388012695    2.44485677824640    0.28777358462670
C        -5.58308031502294    3.12675191873881   -0.88049664379918
F        -5.82373911968002    4.42193840779379   -0.66632014461152
F        -6.76988742145159    2.56103530693198   -1.17264303883093
F        -4.84753268633394    3.04268872804221   -1.99886484196612
C        -4.20475924494377    1.27860701424122    0.06162281304996
O        -3.11836788113393   -1.71104510673731    1.24594768994378
H        -1.89380716469425   -0.71493354832037   -2.41382947260487
H        -2.87661732004443   -2.12141953587039   -4.16988482546958
H        -2.88940486015821   -4.57625434729406   -3.92718058821298
H        -1.91354500019358   -5.61563792726838   -1.91338901123235
H        -0.94204573918974   -4.20493083231889   -0.14524475702512
H        -0.61642812559196   -2.11496425298502    0.82290354402317
H         0.77993380537604   -1.09475009906157   -1.57213940790002
H         2.70449761625219   -2.39197888104036   -1.29892816033425
H         4.58929042212923   -3.18000389632463    0.07214229558429
H         4.69806567184736   -2.61321038472959    2.46928863316972
H         2.89650959089347   -1.28046611420598    3.49970529247057
H         1.01224459153800   -0.48499719419532    2.12961255786407
H         3.38128741796545    1.50035200854818    1.54196468686841
H         6.35346393879681    0.00924609514490   -1.16119439928468
H         2.36575872260969    0.72639100742177   -2.54039691448401
H        -1.46639045915220    1.33499258414048   -1.00124972364502
H        -0.66096596661017    2.21583891313485    2.84338485904745
H        -3.29648866152317    0.60133087322759    3.24762804361417
H        -5.55655131156401    3.90885641023302    1.72554805430471
H        -4.11912353608086    0.88293928492995   -0.93943794138257
