72
 energy: -136.655647032011 gnorm: 0.000550593804 xtb: 6.3.3 (4ae9cef)
C         1.48690738464613    3.65509997931705    0.76575116348031
C         0.66029332060395    3.92716260298007    1.99104556931299
F         0.90802243360236    5.12237014704485    2.53898766094435
F        -0.66834319026260    3.92046043402286    1.72366566054400
F         0.82906446453073    3.02967790521877    2.97855014435824
C         2.36405770531684    4.64132403520746    0.33060246961120
C         3.12313179139313    4.44749071389677   -0.80688905905652
C         3.00196588076573    3.26738291667071   -1.51892669912146
C         2.12935002448555    2.28761022209733   -1.08852944299600
C         1.36477860171940    2.45801563806727    0.05988418987903
C         0.42102445642511    1.35645683078796    0.46789387586089
C        -0.74876447251277    1.18546175680456   -0.52440550929855
C        -1.97572378777206    1.94298606594932   -0.09116188766522
C        -2.47430947470937    3.04326098440935   -0.78803090703295
C        -1.79725727321781    3.54528821217548   -2.03214214559734
F        -0.51843761003451    3.92822246947010   -1.80048004514884
F        -2.39969676307802    4.61471662023704   -2.56467496093498
F        -1.72413036502911    2.63583601377439   -3.02044626824232
C        -3.59969329103179    3.71646411375631   -0.32827599974112
C        -4.23541056225954    3.30444196863724    0.82654843083084
C        -3.74123078874490    2.22187738672391    1.53259039391240
C        -2.62084794794086    1.55597975624280    1.07792561138961
N        -0.97523952933765   -0.25660753846721   -0.50945337961561
C        -2.11674672699189   -0.81713587888374   -1.00645760336334
C        -2.12993389831630   -2.31317879481248   -0.98640644446256
C        -2.43747360145542   -3.01480237867964    0.17987635504692
C        -2.78456296554423   -2.28578933108049    1.44445340629443
C        -2.43906003307098   -4.40218100982630    0.13402736372016
C        -2.15851642389341   -5.07852079943961   -1.03973911722273
C        -1.89350160817386   -4.37336703283731   -2.20002320513523
C        -1.88534202067519   -2.99131991037567   -2.17254372984973
O        -3.03233417680770   -0.14249289648613   -1.42177442219493
C         0.22513617450444   -0.96856758281816   -0.14300264500319
C         0.88614494251163   -1.64131708606126   -1.36589862572371
O         1.28356294646685   -0.74862810113808   -2.26871461600951
O         0.99379342315992   -2.82608422052895   -1.50459159666305
N         1.06898159890200    0.04964493359233    0.43461397929057
C         2.31657199822518   -0.15159114582920    0.94614685540423
C         2.84132540693744   -1.53438294228709    0.71713294084906
C         3.75700379528175   -1.69955879850049   -0.31723275296931
C         4.26499278662161   -2.95136465949368   -0.60556102264952
C         3.86415138333909   -4.04216230084134    0.14768352697195
C         2.98119502188913   -3.87175211038257    1.19636565209975
C         2.46197643284572   -2.61946809335127    1.50318160837295
C         1.53371733947577   -2.46451508820805    2.67144519637995
O         2.94424866707062    0.73792434880629    1.47494868332858
H         2.44991176652858    5.56130822296056    0.88736682546562
H         3.80342667668508    5.21757348344579   -1.13508158201563
H         3.58677177111808    3.11073631881462   -2.41260996392005
H         2.03792223819980    1.36786933756990   -1.64558091825084
H         0.02905411644305    1.52616867317808    1.47630297116773
H        -0.42315807773376    1.48218840579440   -1.52677070456812
H        -3.97514084745283    4.56454734806505   -0.87919305111627
H        -5.11050759648847    3.83061244236365    1.17395685720159
H        -4.22709305394425    1.89749000290994    2.44024786655667
H        -2.23867029188653    0.71257616906228    1.63278508700357
H        -3.46836231117363   -1.46654256048954    1.22877445370209
H        -3.25803164658243   -2.95972436255093    2.15448272982020
H        -1.89433282283103   -1.86937492279589    1.91836549526403
H        -2.67115359716030   -4.95877541958493    1.03093746834144
H        -2.16098859542817   -6.15810101271041   -1.05100451461172
H        -1.69423127230304   -4.89581853754359   -3.12270293007806
H        -1.69038444672528   -2.42682257459589   -3.07286944182799
H         0.00156488907013   -1.77895317773762    0.56706299155143
H         1.67028799588860   -1.18818048368192   -3.04437701023673
H         4.06264923556834   -0.83547095400864   -0.89025107670911
H         4.96922970568078   -3.07641070095298   -1.41410884304222
H         4.24876602016564   -5.02535410334153   -0.07753463259121
H         2.68435142150619   -4.72147251327849    1.79372536605526
H         1.26591111963430   -1.42258830676143    2.83228657993200
H         0.62961197878854   -3.05606903281662    2.52264306020765
H         2.01775915455993   -2.83178109690656    3.57518326451596
