80
 energy: -132.279099148130 gnorm: 0.000693659422 xtb: 6.3.3 (4ae9cef)
C         1.91813919682513    1.45389270878613   -1.67601904438339
C         2.44059043615159    2.51534480977786   -2.35576906830242
C         2.60931079997319    3.76752289168334   -1.72785372868140
C         3.15102883564795    4.88087852315384   -2.40203722734589
C         3.30016914866751    6.07988507142949   -1.76303550550037
C         2.91255482211521    6.22008964739864   -0.42134543283189
C         2.38419045758070    5.15916667894734    0.25928010782263
C         2.22041086751602    3.90801300267683   -0.37047874077402
C         1.69088617977338    2.79199537126555    0.30832894544542
C         1.54831626288714    1.58617719230314   -0.32237609452224
C         0.95442832219351    0.40410310855305    0.39596006125280
C        -0.45967757410875    0.07966022639783   -0.13561770811510
C        -1.53258822498334    0.66030280789276    0.74329477824907
C        -1.75489643302915    0.15673969378754    1.99883230054229
C        -2.78394095071772    0.66342271172717    2.81453738296193
C        -3.05235643653291    0.13580582145772    4.09495654816002
C        -4.07265404967010    0.63425022616418    4.85483174353583
C        -4.86985677866827    1.68391148474673    4.37119380458471
C        -4.63172030961169    2.21930734772860    3.13650365249455
C        -3.58692087055721    1.72749995031153    2.32770287503604
C        -3.31020059405627    2.25572918315927    1.05038819580353
C        -2.30927991233121    1.73749920604487    0.28032884059865
N        -0.48560283487396   -1.37121447089561   -0.16727480245996
C        -1.55848556362773   -2.19554568001523   -0.26511979029638
C        -2.88803451105532   -1.52780726433369   -0.40001020626512
C        -3.17603224586795   -0.78618510399724   -1.55461986812727
O        -2.17568290592581   -0.70727469771124   -2.47348477810065
C        -2.40324666710490   -0.01538755099139   -3.67769118136913
C        -4.42707671969903   -0.19671573992802   -1.68672461869689
C        -5.37246167386076   -0.34446127290937   -0.68574208408925
C        -5.09860897897038   -1.09825728405843    0.43989428130587
C        -3.86060052218454   -1.70236807735903    0.56973226485117
O        -1.42894876334462   -3.40410328234614   -0.22977034648036
C         0.84893555520908   -1.92671225388096   -0.19076510550109
C         1.16084583623245   -2.44919446684457   -1.60643531845072
O         1.33309064371972   -3.76187547735513   -1.62082484110318
O         1.21894617189644   -1.75175505931558   -2.58201242826881
N         1.70086853559289   -0.82357372824514    0.16310167956413
C         3.05589768606858   -0.85535079715078    0.22452703604901
C         3.67013640631709   -2.14093875546375   -0.23740422624434
C         4.39507994239028   -2.12873198481126   -1.41836910600937
C         4.99155205792382   -3.28562362677277   -1.88967085681529
C         4.87680955258010   -4.45394342604267   -1.15961256642439
C         4.17860728316264   -4.47682864405581    0.03622705193375
C         3.57023511894330   -3.32131312518719    0.51115641677919
O         2.86236643419175   -3.23706750902490    1.67175278713937
C         2.70960031555154   -4.39836358202266    2.45468203315190
O         3.71223989230659    0.10333088177468    0.56943586900564
H         1.79317836291822    0.49899834915334   -2.16593969878242
H         2.73528054231605    2.40961422426128   -3.39029259176964
H         3.44917358950814    4.76763509156413   -3.43490262919907
H         3.71842943499682    6.92834519085214   -2.28499388446852
H         3.03811524730005    7.17485616501453    0.06838772596273
H         2.08728731403623    5.26134824582203    1.29337808952352
H         1.40663572631200    2.90133943876391    1.34555319786750
H         0.92133272041496    0.60881303838384    1.47492271910186
H        -0.55615417951437    0.46987689089031   -1.15751320240295
H        -1.15683995786095   -0.66520189744354    2.36725900512529
H        -2.43684532733945   -0.67292175332879    4.46201515561921
H        -4.27431200422920    0.22489038450142    5.83381960664243
H        -5.67273661080655    2.06446733560235    4.98543429643187
H        -5.24193592075998    3.02797623647136    2.76048554201420
H        -3.91070199623588    3.07697067352881    0.68703572539378
H        -2.10393032101069    2.14686419385284   -0.69810403281074
H        -3.21953499783092   -0.46476462573285   -4.25077994601787
H        -2.62233489263029    1.04279595960746   -3.50005584215208
H        -1.47461855949638   -0.10310899660850   -4.23924379813044
H        -4.67269334014509    0.38132589659021   -2.56350757396909
H        -6.33583430048360    0.13014484587141   -0.79802889433130
H        -5.84273582008030   -1.21735021232025    1.21167285660415
H        -3.63112858692768   -2.30285030660622    1.43645441145320
H         0.91541232402257   -2.76876288400101    0.51271020747242
H         1.46926554220849   -4.09218440926354   -2.52386488443768
H         4.47703083285792   -1.20215299526522   -1.96619187663914
H         5.54405242127741   -3.27173390619068   -2.81620378963602
H         5.33899499763835   -5.36270588330593   -1.51576025765011
H         4.11291677132558   -5.40028670887557    0.58842183682075
H         2.11653638532772   -4.09428850648023    3.31550280690724
H         3.67488154490713   -4.78015686952520    2.79948609288933
H         2.17744381736126   -5.18172489222056    1.90625364545518
