78
 energy: -128.009570228851 gnorm: 0.000322809660 xtb: 6.3.3 (4ae9cef)
C         2.16190881176477    1.24503926258903   -1.33958118708483
C         3.28297208749765    1.56529088872643   -2.04849656425412
C         3.83949486205062    2.85899315889085   -1.97739779271439
C         5.00036374020005    3.22038782487639   -2.69124382485529
C         5.51279946846781    4.48383451028911   -2.59606119966208
C         4.88757094181470    5.44287602096237   -1.78365174537126
C         3.76063115572644    5.12299974872825   -1.07995820691441
C         3.20769519447105    3.82763189764612   -1.15545841020416
C         2.05278254200819    3.46475749746353   -0.43468997234304
C         1.53575885178886    2.19992398407449   -0.51473518787012
C         0.28387436560470    1.83238946129193    0.24487100641641
C        -0.89443010109216    1.60398409017389   -0.71917789059952
C        -2.25773471906652    2.00799235095734   -0.20557569000113
C        -2.54258685235837    2.18331546700861    1.12354142663644
C        -3.85487987928303    2.47457157127455    1.55348902974493
C        -4.16652107503733    2.64226592291666    2.91879794676963
C        -5.44690344762972    2.91541243708737    3.31177780057665
C        -6.47164019619340    3.03478762830080    2.35950700629004
C        -6.20064853759761    2.87483013624218    1.02917327342592
C        -4.89102321460234    2.58944829351269    0.59132874218922
C        -4.57028611455446    2.40839997011371   -0.77085034194849
C        -3.29300182385923    2.12477180444893   -1.15784254454250
N        -0.85084543968510    0.15557643756122   -0.90736177942022
C        -1.17026038335648   -0.45411915031277   -2.07772106391465
C        -0.96313804568527   -1.92324086661227   -2.10617882421303
C         0.11283917073112   -2.71208087073981   -1.78994381154460
C        -0.24769857194029   -4.04151491655971   -2.11930213457875
C         0.58336821184361   -5.26438576905145   -1.94017978710627
C        -1.52364796163664   -3.96507382475068   -2.61649899958228
C        -2.44557930763283   -5.02094973296663   -3.11167983963360
O        -1.94784966342369   -2.68819806082510   -2.61935506156147
O        -1.57080807939626    0.16976644718918   -3.03777736003494
C        -0.48629707411470   -0.42443857620123    0.35486609237912
C        -1.73709110931943   -0.63706725136386    1.23928831372003
O        -2.77257182172075   -1.03206449109839    0.50365067554190
O        -1.76146659409717   -0.53274838979759    2.43224999761224
N         0.42308986683582    0.53804223024451    0.91982113933914
C         1.54612714485478    0.30271572072118    1.66439918986100
C         1.81859970705950   -1.09396649094672    2.05403685139096
C         1.05378559619399   -2.18430133769475    2.39011831774525
C         1.95138645045219   -3.22919575441057    2.70940828908436
C         1.60713748057074   -4.61723135307828    3.12623459951244
C         3.20850701142957   -2.70156831972745    2.54462552522513
C         4.55196276659282   -3.31306600635925    2.71889038000623
O         3.12846333597234   -1.41883395106793    2.16110452251395
O         2.29624100717005    1.20970022671373    1.96174828969646
H         1.74715399673529    0.24934153903579   -1.40668553878110
H         3.76170859700612    0.82695176575032   -2.67605716791837
H         5.47875260855858    2.47837407497970   -3.31491127347734
H         6.40351476773727    4.75417641992440   -3.14444986833002
H         5.30704606342075    6.43639124136963   -1.72027183849123
H         3.27652263169101    5.85696803836623   -0.45184304859104
H         1.58349922295110    4.20408348936281    0.19844800244105
H         0.07357192873978    2.61669690690775    0.97665081503573
H        -0.71651835761704    2.07444983511572   -1.69106320332356
H        -1.77978478423683    2.09525009893637    1.88281574324198
H        -3.37374366321768    2.54497071458604    3.64623156070497
H        -5.68024852526804    3.04273679776628    4.35866670281205
H        -7.47707760580503    3.25340864842065    2.68858078745699
H        -6.98570279559008    2.96436618019305    0.29189471875318
H        -5.35678514867782    2.49660780646719   -1.50625366782486
H        -3.05554007631849    1.96909212872605   -2.19902500686896
H         1.06559418744585   -2.39693692777301   -1.41061540551661
H         0.28182090665782   -5.80238094099242   -1.04103557063175
H         1.63219533036756   -4.99626755993870   -1.84391922449205
H         0.46495404153839   -5.93486715639867   -2.78874742529093
H        -1.96486714952131   -5.61156974564965   -3.88992269986134
H        -3.33876346828647   -4.55461162487888   -3.51725757479108
H        -2.73085611274571   -5.69414859383533   -2.30375004903556
H        -0.01862585535411   -1.40990915060624    0.24134493837386
H        -3.56301739821753   -1.16252867969670    1.05263889719323
H        -0.01228702562743   -2.22817994307012    2.46784908468473
H         0.54174426847821   -4.69645189817144    3.32344081207354
H         1.87116406517954   -5.32924578879730    2.34412714750985
H         2.15385089766044   -4.89185619822858    4.02660147653037
H         4.68268021366710   -3.65602114732603    3.74437149377091
H         4.67320327090541   -4.17081766592297    2.05849690262848
H         5.31438820997874   -2.57373054105426    2.49143628427145
