80
 energy: -132.274107992110 gnorm: 0.000281877908 xtb: 6.3.3 (4ae9cef)
C        -5.17326362010451   -1.25794654866136   -0.34695607059967
C        -5.10141514169674   -2.02417544502094    0.78042862021991
C        -3.87426829290176   -2.17495039267200    1.44188985705194
C        -2.75360641682812   -1.54322037958016    0.98223795778405
C        -2.78988305211756   -0.73205813063023   -0.17355996046233
C        -4.03007964741266   -0.60823457921994   -0.85884411143375
C        -4.10509671408183    0.15132339681095   -2.04361538060733
C        -2.99360047078127    0.76141958151092   -2.54998311581775
C        -1.77604715620072    0.66551467925182   -1.86817034610939
C        -1.66300931106669   -0.04005530648341   -0.69456793237797
C        -0.32375879916237   -0.02624560535071    0.00127629773015
C         0.80311395653534   -0.69089526069790   -0.84136755639136
C         1.39780074238882   -1.88603641690600   -0.12755223040332
C         2.64100073378677   -1.81812787311338    0.44498764770575
C         3.17486480061820   -2.89849995357885    1.16172889630615
C         2.45131060904843   -4.04464109763474    1.31612406805036
C         1.17571553447058   -4.16836890138750    0.72729076883543
C         0.64156471409555   -3.08646641765601   -0.02504873303506
C        -0.61560102010771   -3.26605538317546   -0.64214129493378
C        -1.32058997670519   -4.42753856725701   -0.48885010358164
C        -0.80573590034245   -5.47842444967328    0.28250137042506
C         0.42175978670346   -5.35228943925259    0.86802459766813
N         1.75896093069580    0.37891712814917   -1.06970297175686
C         2.65156932165791    0.30706153254712   -2.09654668515495
C         3.57843376245944    1.47387388291538   -2.20335069743670
C         3.14262051104778    2.69265535752229   -2.71531888661720
C         4.03455823338290    3.74252028023588   -2.81018265437843
C         5.34990121845568    3.59982922138576   -2.39986576066653
C         5.79106196773261    2.37931933365875   -1.89993337121179
O         7.05621973941860    2.11901859368546   -1.48140312497786
C         8.00131129257201    3.16088141040017   -1.50277240494798
C         4.89369340743165    1.31419780789123   -1.81275825313758
O         2.67884131842756   -0.65173090160983   -2.83729980026339
C         1.53513850198347    1.47173793008745   -0.16243940917371
C         2.44687176287898    1.37544428852290    1.07966290578902
O         1.79374577999328    0.93164789396491    2.15096923883584
O         3.61114810723857    1.65808405780630    1.07786929664824
N         0.14518067681498    1.33952674598980    0.18760386575420
C        -0.55530840940821    2.41619901985773    0.62800585489941
C        -1.96046403812323    2.13907465701206    1.05103374143190
C        -2.20743525403524    1.35333937293363    2.16190591890446
C        -3.51740073836220    1.09508705666364    2.56649597860037
O        -3.64950839175523    0.29758672347822    3.66041158681382
C        -4.94602285208949   -0.02303663810498    4.10417045041811
C        -4.57292271625137    1.64025586279291    1.84486156797466
C        -4.31326121195082    2.45202886420865    0.75249914456441
C        -3.01844573497939    2.71641202548197    0.35609235790795
O        -0.05208213199709    3.52164700459356    0.66276446548949
H        -6.10915271206181   -1.14200499356910   -0.87483377104733
H        -5.98023621639480   -2.52404052052129    1.16210387574270
H        -3.81719553610029   -2.79490532397831    2.32422483345016
H        -1.82781363660369   -1.68946187783305    1.51472214789833
H        -5.05713536242723    0.23268451669907   -2.54765802404055
H        -3.04497030676971    1.32909015822257   -3.46675914178630
H        -0.91038030894538    1.17589266517957   -2.26609726216880
H        -0.37613156289424   -0.52220679715682    0.97457706631088
H         0.43827655910410   -1.01140452770377   -1.82438014371425
H         3.23998604321126   -0.92605339243454    0.34104427046744
H         4.16047946297237   -2.80612267119080    1.59307674059741
H         2.84616956410496   -4.87677064532696    1.88087683364131
H        -1.02966555589332   -2.48173031832038   -1.25421592908277
H        -2.28231788537848   -4.53880738545541   -0.96766491569179
H        -1.37822423644779   -6.38694927443639    0.39760021041329
H         0.84037978847325   -6.16206041365217    1.44863195884787
H         2.12187481897788    2.81128294157745   -3.04821849242169
H         3.70547915664349    4.69195799171843   -3.20596412832788
H         6.01762520389317    4.44304566418704   -2.47901158223452
H         8.92213515493282    2.73108504198988   -1.11148134204953
H         7.69279215936098    3.99558142084651   -0.86527116247645
H         8.17770554018201    3.52471252169424   -2.52037931254153
H         5.24673021145684    0.37054860800653   -1.42911377321102
H         1.73343594191569    2.44846323813716   -0.62466845249103
H         2.38308421572212    0.89867951430535    2.92252884972182
H        -1.39783694856220    0.93185318819902    2.73695791799406
H        -4.80914152605555   -0.67188562133399    4.96787197757696
H        -5.49935478896626    0.87090113713494    4.40902590751628
H        -5.51011242175612   -0.55764542030082    3.33327494092813
H        -5.59609367681433    1.44714967295175    2.12479118815922
H        -5.14041330335016    2.88202806095924    0.20786113958400
H        -2.81755824702353    3.35148682020208   -0.49205702587057
