78
 energy: -149.494825931177 gnorm: 0.000350797837 xtb: 6.3.3 (4ae9cef)
C        -2.52465019862323   -3.97848818151979   -0.71604143452445
C        -2.28003228221158   -4.61564779532410    0.62375920418995
F        -0.98450973378704   -4.96577426216373    0.79685319940092
F        -2.98265759837443   -5.74136676419937    0.80352279686782
F        -2.58309258231237   -3.82394314947830    1.66563489025668
C        -3.41453713973761   -4.59127727536243   -1.58951563299352
C        -3.65123385629536   -4.04998905393505   -2.83820902752680
C        -2.99263404808935   -2.89528978087577   -3.22178596476219
C        -2.10483878901844   -2.28922176674019   -2.35529805546419
C        -1.86036326466070   -2.81111166728623   -1.09029054355502
C        -0.86786647240659   -2.10649855279919   -0.20273088334257
C         0.57955102436255   -2.23177695493820   -0.72514760025671
C         1.35887768566065   -3.29445107021380    0.00731803228453
C         1.74962896643282   -4.49299778930343   -0.58979633932567
C         1.39664533565889   -4.80253570609300   -2.01695005956717
F         1.82366990213740   -6.00565106141577   -2.41753849054316
F         1.89338758703048   -3.92327033473476   -2.90669306075675
F         0.05800209677547   -4.80496023797582   -2.22834595457445
C         2.45454060357666   -5.44316253125806    0.13893770932501
C         2.77470029842749   -5.20863103594734    1.46212677899182
C         2.38236922315838   -4.02641316559318    2.06461710664385
C         1.67773855171527   -3.08183021155600    1.34376972550771
N         1.13783317978365   -0.90360220907414   -0.49193504576889
C         2.47883096102435   -0.66009023223898   -0.53148251749801
C         2.83513013317248    0.74812194444831   -0.16839896186309
C         3.47554074780569    0.97196404570005    1.06640506952916
C         3.79241225594309    2.24207052149230    1.45433474029253
C         3.49299547441616    3.34814892161075    0.63147454120592
C         3.79416267829861    4.67201453952871    1.01299203640931
C         3.49580743932730    5.72139296355154    0.18976954393914
C         2.88326554361168    5.49722526113750   -1.05364540678207
C         2.58076525977008    4.22658000992068   -1.45476572672866
C         2.87662270041892    3.12208099726090   -0.62782259681634
C         2.56435221954177    1.80013065647070   -1.00625718115291
O         3.28738353754347   -1.51356483352023   -0.81139171523716
C         0.13163892370536    0.07814100817779   -0.17261057703480
C         0.37641134765411    0.66457332695914    1.24793047078271
O         0.35821482992664    1.99244462251625    1.35927614606689
O         0.54748377989499   -0.04633528428436    2.19304155256942
N        -1.10444698911494   -0.66559972124290   -0.20965525921738
C        -2.34458799237848   -0.16253224463231    0.07212837455033
C        -2.39359286413467    1.32721953711302    0.17600863355467
C        -2.78260253820619    1.90189079661558    1.35837944047143
C        -2.81330426408712    3.30348202215744    1.50471779190825
C        -3.19714919650918    3.91908332414996    2.71384228223122
C        -3.21560784545373    5.28116537920071    2.82511547607483
C        -2.84979019335354    6.08838353639550    1.73625273558142
C        -2.47318682062110    5.52180302869614    0.55065958347927
C        -2.44796758625278    4.12022885466301    0.40178594930427
C        -2.09241370433496    3.50153234576293   -0.81662718163182
C        -2.06810383065703    2.14028552312976   -0.93119909284319
O        -3.31015444333144   -0.87731581981326    0.20914186442282
H        -3.92085608622312   -5.49438446340345   -1.28696625405682
H        -4.34568379816923   -4.53117855983186   -3.50875030231924
H        -3.16865913979853   -2.46770239892156   -4.19715430497617
H        -1.59262662790006   -1.38756704885524   -2.65754783433995
H        -0.92226245846471   -2.46689338279649    0.82962468483841
H         0.57184989440031   -2.41661235709955   -1.80461362278237
H         2.75047801215882   -6.36616234892597   -0.33451804462244
H         3.32528525270314   -5.95042101049761    2.01928312153011
H         2.62200790443256   -3.83756713143104    3.09985676240440
H         1.37495880880982   -2.16142517511509    1.82130372765028
H         3.70087872520027    0.12384626594118    1.69418321292097
H         4.27718856611061    2.41723800442654    2.40301467085810
H         4.26724608421209    4.83981741333697    1.96936070933104
H         3.73215852184758    6.73206615784518    0.48730896979445
H         2.65652956943526    6.33845988625170   -1.69171050645822
H         2.11414350308933    4.04790141642479   -2.41344846273490
H         2.11996885974297    1.62811989641759   -1.97801422941878
H         0.11785968445628    0.89141224884136   -0.91726898311085
H         0.20000489403938    2.46630691860062    0.52978491345611
H        -3.05898495356228    1.27513538612738    2.19295247539627
H        -3.47591013339751    3.29200836492600    3.54745191232008
H        -3.51246957128860    5.74783233189335    3.75241461059035
H        -2.87096757102628    7.16271125501769    1.84322974450841
H        -2.19414910383952    6.13903780488418   -0.29128611734116
H        -1.85243329356257    4.12629276946782   -1.66527975396070
H        -1.83419459623934    1.67509128335105   -1.87886746557645
