60
 energy: -127.828687350044 gnorm: 0.000765815653 xtb: 6.3.3 (4ae9cef)
C        -2.58669305472176    2.28338195715720   -0.80195583563202
C        -1.88324031503694    2.80636920648885   -2.02600109338963
F        -1.68287309178645    1.89144243034827   -2.98681219688536
F        -0.65805012658799    3.30431613384188   -1.73985770278301
F        -2.54440609742082    3.81044838640954   -2.61605276108764
C        -3.72713052023163    2.95894348826976   -0.38220247685112
C        -4.41549716359204    2.54627282527131    0.74254740598683
C        -3.96561488837888    1.44871401096876    1.45266191144971
C        -2.82925586065746    0.77850230293078    1.03989011446005
C        -2.11622736205746    1.18000359199657   -0.08362929557683
C        -0.87293365304875    0.41540112487944   -0.47226259084146
C         0.37314686728580    0.81945616150337    0.36070558962701
C         1.29317649378628    1.76415193299534   -0.36337967043662
C         1.58842202707787    3.04028790367014    0.11549658667166
C         0.97073522575999    3.54230397514684    1.38940654305439
F        -0.38100035399624    3.57544637241077    1.32927022052032
F         1.35307078672218    4.77921731409890    1.71342521677732
F         1.25829151838706    2.77259120306077    2.46071330395878
C         2.44132606709976    3.87715117751144   -0.59177988611151
C         3.00710823990045    3.44982146525349   -1.77751129601715
C         2.71916553109688    2.18596879681605   -2.26195880774889
C         1.86873883636162    1.35449469865106   -1.56018369763166
N         1.02589749179157   -0.46754213939761    0.61245281307754
C         2.36449173232559   -0.62323241128033    0.84867410394410
C         2.82881774937710   -2.02923474489410    0.90695626866318
C         2.72479539843323   -3.00309617339019   -0.05003835163983
O         3.35100083846940   -4.11612934399257    0.34402125320417
C         3.86662034665927   -3.87881409954861    1.55952622943055
C         3.59003414509509   -2.60981413258563    1.95993018046545
O         3.10542833631830    0.32076252602347    1.00939028726810
C        -0.00440293520406   -1.46929893432194    0.70640559995064
C        -0.55635244918926   -1.56891360756224    2.16709480698935
O         0.16134808126615   -0.96564703532363    3.10344608175360
O        -1.54740592062905   -2.18693185668444    2.42372245320716
N        -1.00491684036396   -1.02289336550270   -0.22962373116458
C        -1.58976377332393   -1.77155075309606   -1.22345003174794
C        -1.46565662740458   -3.23554369786973   -1.13705865588229
C        -1.32737450171843   -4.04277820426082   -2.23762319717459
O        -1.27147914514071   -5.32572564143604   -1.88068791599049
C        -1.40079376162787   -5.37352471920866   -0.54338449154052
C        -1.51956285672428   -4.12409270079251   -0.02270500723908
O        -2.16640404599926   -1.22313965479983   -2.13741070113670
H        -4.07740215454524    3.81103599391045   -0.94312717508785
H        -5.29910851575401    3.07939237766844    1.05616206451001
H        -4.49519171603672    1.10903756803827    2.32913131451249
H        -2.50339846922199   -0.08615124654707    1.59395092981489
H        -0.67997321036295    0.54444081417903   -1.54184920737442
H         0.02610632548498    1.24210309990738    1.30998357252495
H         2.65926647792321    4.86208890590878   -0.20978436424120
H         3.67011746103587    4.10421045672270   -2.32113156909306
H         3.15537911602339    1.84630971241236   -3.18862272380882
H         1.65197719494658    0.36650163914405   -1.94001733161119
H         2.27776976069832   -3.00441526907261   -1.02544101157756
H         4.40452418509691   -4.67584206105028    2.03187440232039
H         3.87568597481788   -2.13207168433264    2.87340925468765
H         0.35610379949698   -2.47161058943423    0.44603346366848
H         0.92195890757532   -0.46317295207402    2.76712605183875
H        -1.24637998604878   -3.79818585544548   -3.27770839957047
H        -1.39484151204072   -6.34058271596472   -0.08220999479267
H        -1.67717600745868   -3.86063496373327    1.00205014732320
