66
 energy: -108.838809823471 gnorm: 0.000381257313 xtb: 6.3.3 (4ae9cef)
C        -1.39255747569524   -3.31170492079678   -0.87680594733187
C        -1.88107569455970   -3.94778396795511   -2.00437946333676
C        -2.19641092960750   -3.21327170511076   -3.13445014433600
C        -2.01957966449027   -1.83986702768526   -3.13417828381090
C        -1.52694997198818   -1.20161900018534   -2.01038572539929
C        -1.21576522706574   -1.93619853873901   -0.87275937681171
C        -0.64900121539883   -1.24366458803612    0.34298931959242
C         0.80798423049163   -0.79409411357055    0.09808932090115
C         1.78125609443374   -1.28626679930794    1.14011690216281
C         1.67695610558948   -0.87221569863806    2.46209037646153
C         2.59044015058361   -1.30759355442412    3.40530351882405
C         3.61550193590227   -2.16299385420391    3.03708564227577
C         3.72113495162159   -2.58474973651647    1.72247468236545
C         2.80860585943715   -2.14739485261034    0.77881045160889
N         0.72442253195769    0.65345297828735    0.08842111699370
C         1.62779934076043    1.51293716928120   -0.43166771400446
C         2.83710481531475    0.86923088666760   -0.99009926241526
C         4.06720626975143    0.76441580328473   -0.40350207763853
C         4.54825893565018    1.20870109408007    0.92961054413629
O         4.91165137274058    0.11665203213939   -1.22872499932891
C         4.22950568841605   -0.18381682873884   -2.35286322741221
C         2.94152604091665    0.25113829468180   -2.27583353039848
C         1.85616299661055    0.13797442564700   -3.29030409721815
O         1.42090757703475    2.71309447949418   -0.42072973309525
C        -0.52412641938418    1.15523552566851    0.61476590404260
C        -1.02938609976896    2.28099092874281   -0.31169102490715
O        -1.21106397622825    3.41568032220119    0.34556863049370
O        -1.25429489166487    2.12444726103991   -1.48202064541986
N        -1.36588801824587   -0.01128575301378    0.64623889687037
C        -2.71550644160409   -0.02949661058742    0.80901367468749
C        -3.33007205461727    1.30704526260167    0.98445944543666
C        -4.08814911282463    1.95531809770189    0.04559724436698
C        -4.40325166842995    1.58299047044569   -1.35573572839717
O        -4.52618855407339    3.12722861756180    0.54258712827420
C        -4.07481412513268    3.22328095509319    1.81064937485983
C        -3.33050144735771    2.13508443148776    2.14919564377501
C        -2.65688585477845    1.85042844716439    3.44638240754047
O        -3.34454784862735   -1.06656209821498    0.80413511523009
H        -1.15534923821671   -3.88421975521010    0.00810686295780
H        -2.02183141943963   -5.01856593761783   -1.99784564513156
H        -2.58375285089313   -3.70952442744175   -4.01208884717328
H        -2.26695668149199   -1.26085390346361   -4.01167589158903
H        -1.39716358416038   -0.12953893251680   -2.01452598170463
H        -0.71360760764962   -1.91730031071126    1.20692119578324
H         1.13766127254498   -1.14475878222058   -0.88503477881629
H         0.87925123125713   -0.20622952333128    2.75509782666935
H         2.50311724743530   -0.97768791414731    4.42976924926253
H         4.33019023316906   -2.49963584617780    3.77304485636289
H         4.51834009826447   -3.25131835934835    1.42972886580193
H         2.89523267848347   -2.47346206605249   -0.24769183075733
H         3.89545896059662    1.99027774762767    1.30774686913529
H         4.54832166390305    0.37643172565353    1.63457455425102
H         5.56377036973509    1.58992220069020    0.84981497547137
H         4.76423497972021   -0.69104948258061   -3.13073215977521
H         1.09718721089869    0.89567065954264   -3.11074350009045
H         1.37720834742440   -0.84176422753662   -3.24765794569881
H         2.25894011133978    0.26958329855771   -4.29176085139661
H        -0.38887745633076    1.59614449301212    1.61801780344245
H        -1.44262728276630    4.13437621878724   -0.26414730899184
H        -5.29525976423116    2.10706237174558   -1.68797975281053
H        -4.55632071670025    0.50853093113863   -1.42293889026036
H        -3.57144317261152    1.85031357167272   -2.01052245570539
H        -4.35119285114738    4.09720987427866    2.36522486713941
H        -2.50039665304920    0.78031129470294    3.56133336627170
H        -1.69129809756563    2.35527301302527    3.49418805452231
H        -3.26324123419723    2.21005523298177    4.27432013319343
