68
 energy: -139.336552074476 gnorm: 0.000648835361 xtb: 6.3.3 (4ae9cef)
C         1.34735287648941   -3.08929058037880   -2.32011146919379
C         0.35601811066460   -3.05753450570941   -3.44882120881317
F         0.55114002385726   -4.02364872833309   -4.35116073130637
F        -0.91953827806444   -3.21267063411705   -3.01768424068527
F         0.35616609530338   -1.90169246532618   -4.14044599323883
C         2.32907174909791   -4.07233103259688   -2.32512096760957
C         3.24095714641643   -4.14973608936187   -1.29005522614921
C         3.16863480694751   -3.25036903880010   -0.24094471509403
C         2.19081300636195   -2.27431134011851   -0.23142938999835
C         1.27407971615269   -2.17248578177655   -1.27160920109812
C         0.21985124967977   -1.09660055959188   -1.20232526862436
C        -0.78640678145267   -1.34916874479825   -0.06200924230199
C        -2.08179942595238   -1.94013253402844   -0.55637559112455
C        -2.46468930064929   -3.25634083005295   -0.29999301509173
C        -1.58250184963317   -4.18287637589106    0.49105248456175
F        -2.09226323685821   -5.41356413879679    0.61162019999283
F        -1.33580988202750   -3.76078703656832    1.74236481861565
F        -0.36790486566630   -4.34575139991305   -0.08324457126019
C        -3.66623624553705   -3.74692917274123   -0.79553119871183
C        -4.49366269906960   -2.93658333944444   -1.54904012925944
C        -4.11902210265883   -1.63191330950106   -1.81612355845841
C        -2.92362705909157   -1.14490480136317   -1.32470594781993
N        -1.00884650683193   -0.01732266269261    0.49738584772076
C        -1.90766043155934    0.14512887628886    1.51318808446486
C        -1.94038421375314    1.51396788757043    2.11714031902390
C        -1.62667576996238    1.66038690900431    3.46457064444867
C        -1.67702082051243    2.90660024296614    4.05819436340436
C        -2.06409159509998    4.01518408885377    3.30530931347351
C        -2.12570042278466    5.29724665592582    3.90360386002693
N        -2.17745655345347    6.33918687095281    4.37659748201186
C        -2.40845595511143    3.86723162103567    1.96048768697919
C        -2.34429502958097    2.61910441694491    1.37175047856866
O        -2.63775658058849   -0.74710773284797    1.87381323217890
C         0.04689726970653    0.90271080165177    0.14633123409880
C         0.94317412329298    1.19472654992537    1.38344361858774
O         0.96893662824665    2.45641427114710    1.81901603298920
O         1.55593691846442    0.32554290732844    1.92518428352751
N         0.79964817724993    0.20079764482032   -0.86320997793255
C         1.96394479649860    0.63344809769560   -1.42272022254962
C         2.45872585374335    1.94045116173179   -0.88073937338798
C         3.58903309013783    1.94115028577937   -0.06951499162332
C         4.08354489156644    3.12963062222126    0.43045758831329
C         3.45568147767428    4.33121370028281    0.10305575140344
C         3.95659051238604    5.55494284860804    0.60946417391790
N         4.35707647281071    6.54823929114202    1.01562678823874
C         2.34033687009507    4.33678098731579   -0.73580999720696
C         1.84621169355779    3.14256857909834   -1.22403426675189
O         2.55188813104598    0.00808548847729   -2.27227062301585
H         2.37493940511071   -4.77550185743443   -3.14181506333833
H         4.00205529143346   -4.91400521370837   -1.30353590032597
H         3.87243084529780   -3.30885890805248    0.57509124660208
H         2.14073967478748   -1.57557750772338    0.59141813437085
H        -0.31154646584236   -0.99493173894047   -2.15414379884076
H        -0.32853120000251   -1.97766278733486    0.70831477799189
H        -3.95051690504971   -4.76673264600552   -0.58911543610875
H        -5.42532614623440   -3.32585181852380   -1.92803149010433
H        -4.75617940467625   -0.99385250962244   -2.40930957440320
H        -2.63471005653404   -0.12544005042297   -1.53512991264255
H        -1.34250409835536    0.79170539355852    4.03773408964505
H        -1.42759252974098    3.02821956378489    5.10100447300396
H        -2.73193902751592    4.72762541283046    1.39332625544860
H        -2.63937682409770    2.49526905633432    0.33923623728027
H        -0.37349538820731    1.84460167085837   -0.25180605145143
H         0.43365376223864    3.07412477196201    1.30099953021648
H         4.07021814052894    1.00536494235911    0.16894517581920
H         4.95396000445377    3.13660910620191    1.06840123659701
H         1.87607956031301    5.27493445261156   -1.00219346834594
H         0.99773428054773    3.14327269525030   -1.89401862966120
