54
 energy: -96.138675238426 gnorm: 0.000960335941 xtb: 6.3.3 (4ae9cef)
O        -3.38369432089979    0.69318951980241   -0.51455463581329
C        -2.71827685086247   -0.32159752925780   -0.62316261589224
C        -3.32133431103756   -1.59639877224062   -1.01803258182312
C        -4.65702367734635   -1.86279566645365   -1.20078291560652
C        -4.73859240057769   -3.20966296572162   -1.60587464898250
C        -3.45391352604971   -3.66715766943820   -1.64624296657383
O        -2.59353514657054   -2.70703965300673   -1.29383792219920
N        -1.36453618379192   -0.29026048693676   -0.43425374827921
C        -0.42336738250244   -1.38156292265532   -0.45984351376490
C        -0.11033371995777   -1.85226464585462   -1.91199288305578
O        -0.56190274908749   -1.05010003997852   -2.87623323892111
O         0.51343615128700   -2.84299074341316   -2.13889163590619
N         0.77599374642234   -0.83570546244481    0.13818888636386
C         1.49807826478304   -1.60513761268755    1.00837790247408
C         2.75748623152278   -1.05102577116903    1.51376006795057
C         3.59655086813921   -1.62633502010117    2.43757673025324
C         4.71143942956036   -0.77167620905142    2.54583452194747
C         4.47802519341491    0.25551657281022    1.67970582552297
O         3.30639290724207    0.10018118631729    1.05507640392905
O         1.13324337202361   -2.72333645093021    1.31893227377970
C         0.77664920995137    0.60659324938756    0.01077266353541
C         1.50993675989446    1.10058405978022   -1.21923566444970
C         2.25344272289713    0.24240732754273   -2.01656889682041
C         2.91505826932209    0.72496153951622   -3.13303172804882
C         2.84701652862069    2.06791636885259   -3.45794179490140
C         2.12473215880300    2.93337178662342   -2.65285785693044
C         1.46295487254317    2.45323466190623   -1.53785306686836
C        -0.73357370780162    0.95294508338322    0.00282147246433
C        -1.22503011085750    1.37260523699952    1.36739398666885
C        -1.22981189345665    0.46796038518221    2.42245554732027
C        -1.67132759650836    0.85949780538949    3.67334198047567
C        -2.11100011204431    2.15557545001712    3.88179153639147
C        -2.10849818546754    3.05969825949551    2.83371688762947
C        -1.66740577623301    2.66978839756627    1.58194509273326
H        -5.45684002607491   -1.16709271678183   -1.05571316726017
H        -5.62574764032244   -3.76168884895764   -1.83702171636571
H        -3.03672324232142   -4.62106668640860   -1.90224000987008
H        -0.73150945281109   -2.26371265686795    0.12038000322789
H        -1.04354014970700   -0.28616386506625   -2.51679256832314
H         3.41709161430814   -2.54490328180323    2.95650716398610
H         5.56802606846100   -0.90282930925436    3.17376999794675
H         5.05225180664754    1.12595031494813    1.42802181407598
H         1.23892703947932    1.05480498079352    0.89589372542799
H         2.32548390642813   -0.80556962514390   -1.76792767600337
H         3.48453260413518    0.04455776206652   -3.74769287749566
H         3.36102271460623    2.44209936456633   -4.33043987757923
H         2.07842956987249    3.98569194942207   -2.89187985339107
H         0.91392898144288    3.13448480298256   -0.90305113678309
H        -0.96702581161755    1.74384305252960   -0.71853344162320
H        -0.89384656686073   -0.54799175935804    2.27201828113930
H        -1.67438937462237    0.14774249761966    4.48545664390103
H        -2.46005796841688    2.45804651717337    4.85777919436906
H        -2.45720783766691    4.06978285457544    2.98860883164197
H        -1.68008727033991    3.37303338372164    0.76235820436691
