54
 energy: -101.645641335812 gnorm: 0.000814027675 xtb: 6.3.3 (4ae9cef)
C         2.30358731946939    0.38582367937745    2.41459107292827
C         2.70868240726735    0.84785200976549    3.65543382202073
C         2.12830828191196    0.34948052025711    4.80819622846256
C         1.15363016061529   -0.62970361634471    4.71477196075021
C         0.74617293277907   -1.08966962534220    3.47587916254622
C         1.30256650693687   -0.57091404284493    2.31259806025348
C         0.84492601120804   -1.08362464702204    0.96632875938189
C        -0.68930157359061   -1.10324300927842    0.78983974297409
C        -1.15117264783486   -2.31876436373610    0.02489087974237
C        -1.81363370283718   -3.34539316460098    0.68186744426646
C        -2.20761658429680   -4.47779964975503   -0.00803692307483
C        -1.94102273932827   -4.59469533953569   -1.36125279249987
C        -1.28531958996179   -3.57163367893333   -2.02378677055420
C        -0.89376424021254   -2.43830479952484   -1.33497867300318
N        -0.95656966967508    0.12366454627140    0.04398831360181
C        -2.22345121024282    0.61191163372802    0.03820613845912
C        -2.51481404279431    1.88764669189521   -0.64577672892213
C        -3.72609087837922    2.50936534757981   -0.50390852854595
C        -3.81920314394528    3.69699524025297   -1.25464797945481
Br       -5.35080848847902    4.79859418146939   -1.26248415085332
C        -2.69530929325599    3.97850394796786   -1.96927119666318
S        -1.48942874356499    2.78748621662076   -1.72648915460713
O        -3.12609466823079    0.00414629633882    0.58182251209932
C         0.26643764332366    0.76396363449817   -0.36574385796474
C         0.57116400957810    2.02390959988567    0.48194419999038
O        -0.22958794194872    2.13349243005672    1.53038197745706
O         1.44709805243501    2.79937296330850    0.21908904740095
N         1.27884492698716   -0.23256931058278   -0.13222059688856
C         2.19782793602132   -0.70348454641788   -1.03017008553037
C         2.43915721792522    0.10379812866134   -2.23755409176590
C         2.46883855032549    1.45462244275258   -2.44975274234999
C         2.80878523187653    1.76153204306615   -3.78281517933008
Br        2.90539328567915    3.53324873007058   -4.42976473368219
C         3.03731003126275    0.66517538887825   -4.55894507162139
S         2.86278106343759   -0.78458111674342   -3.66691903701469
O         2.79104802932985   -1.74484828521217   -0.83889720333171
H         2.78050238549058    0.76664402009478    1.52367932785223
H         3.48433911088187    1.59657237518621    3.71716112873498
H         2.44263720768726    0.71218749761166    5.77518860770328
H         0.71074616109803   -1.03981427564190    5.60994874575917
H        -0.00000440810155   -1.86777053578328    3.41469485923378
H         1.27252485899030   -2.08014540540453    0.79996232736478
H        -1.21782746616405   -1.04747644814629    1.74587795477412
H        -2.03001344945355   -3.25266000894557    1.73578324184409
H        -2.72634720808645   -5.26912057824741    0.51178787041280
H        -2.24686360145772   -5.47883253900322   -1.89998244980608
H        -1.07691129394638   -3.65526241226297   -3.08002852765875
H        -0.38817408892812   -1.64274922978900   -1.86365594761155
H        -4.50976702703795    2.11731827172361    0.11795475494387
H        -2.50861489399870    4.80989651972673   -2.61936212881122
H         0.25971601891660    1.05263032881674   -1.42528733515369
H         0.00644399430865    2.90282702261698    2.07479380657707
H         2.29976928270628    2.20344474555633   -1.69695407039403
H         3.29847497730798    0.64095417508116   -5.59797799043234
