72
 energy: -121.684286373813 gnorm: 0.000808440325 xtb: 6.3.3 (4ae9cef)
C         2.19584524684540   -1.15118086885595    1.67070774643077
C         3.37502746014515   -1.57234309545269    2.21767269783015
C         4.53460285736229   -1.71117371245929    1.42907487232843
C         5.76643093904281   -2.13936894448546    1.96565280888738
C         6.86951887473916   -2.25799085823035    1.16767931608989
C         6.79147261475838   -1.95348393244682   -0.20109186055066
C         5.61166015630165   -1.53728758920323   -0.75039630880789
C         4.45442817479748   -1.40538926647014    0.04592176724010
C         3.22481962230493   -0.97678530168710   -0.49076933485642
C         2.10967964377403   -0.84773038696572    0.29720833140045
C         0.83917533442358   -0.30362237070690   -0.31790155932783
C        -0.45000187492571   -0.71174092620471    0.41542506238294
C        -1.61333505324907   -0.88065360651722   -0.53239642201437
C        -2.10911322163615   -2.12757592306572   -0.80797055319311
C        -3.22535868072824   -2.30089383180193   -1.64998783937474
C        -3.76529905249551   -3.57455253648708   -1.92484510898854
C        -4.86002477774831   -3.70837263546170   -2.73203028547582
C        -5.46430205595391   -2.57644852405611   -3.30157373784860
C        -4.96381439297359   -1.32859764521088   -3.05432033435313
C        -3.83596395323210   -1.15680597785236   -2.22573182808107
C        -3.29023410886471    0.11401172545612   -1.94826397523552
C        -2.20917518557270    0.24980706609889   -1.12667333317757
N        -0.67062565756730    0.40068375538817    1.33571898524901
C        -1.87087047426411    0.69829290817906    1.91515079476143
C        -2.81984251335317   -0.41541654070535    2.04299171778901
C        -4.19511862697257   -0.37677356752944    2.00032124555641
C        -5.06332768474635    0.81400229825466    1.81948050477368
C        -4.61568552417134   -1.72511066130669    2.12746960103382
C        -3.48384864992530   -2.46816615185148    2.25320733587751
O        -2.39330409957287   -1.69368732707730    2.20142210779873
O        -2.13158463038419    1.82693715109025    2.29434730262436
C         0.23506885540912    1.49428050614046    1.05203968774797
C         1.31591767461429    1.68314896351869    2.13039970401075
O         0.88620241231906    1.34034748148503    3.33906779185001
O         2.40516503790658    2.13137135511819    1.90529919992055
N         0.81628721840755    1.15377085931399   -0.21372536796300
C         1.47835461569976    1.92233053779676   -1.12241748544449
C         1.52357946063503    3.37019107371725   -0.91464819647131
C         2.25150677695643    4.30444866323633   -1.62474758030623
C         3.14474940672443    4.08874235025245   -2.79044563039407
C         1.97526014199734    5.55165123094119   -1.01055466680499
C         1.11347718034980    5.29429324173197    0.00911140873396
O         0.83184503661370    3.98902385076089    0.07975153192720
O         1.99282827345897    1.40152832105986   -2.10045139843865
H         1.32608084148100   -1.05479677379879    2.30340992522387
H         3.43334210681339   -1.80378319650361    3.27224983383610
H         5.82178259369253   -2.37092331372063    3.02021958608508
H         7.81100953539035   -2.58563840783685    1.58406087603002
H         7.67511213583952   -2.05125837004580   -0.81500797300065
H         5.54483193859546   -1.29835761682968   -1.80180982915965
H         3.17162015261697   -0.72548635549248   -1.53949243274420
H         0.80540863515661   -0.56575576325326   -1.37979618621924
H        -0.29909344915061   -1.64524317238912    0.96522905295148
H        -1.65322369772887   -3.00262281533836   -0.36562699415472
H        -3.29643310831809   -4.44270427042986   -1.48403978733279
H        -5.26872560350685   -4.68674649323882   -2.93893694245113
H        -6.32811532985991   -2.70165134007617   -3.93806992453105
H        -5.42450610378253   -0.45411601400271   -3.49150750502350
H        -3.74636187929641    0.98475829715913   -2.39681192740533
H        -1.80754045921518    1.23105739711976   -0.92295145870993
H        -5.54197884350577    0.77983134961468    0.84113447463666
H        -5.84396504636215    0.82926865807553    2.57720341561886
H        -4.47082889784317    1.71992334478680    1.89843339056585
H        -5.62541966284843   -2.08063638094255    2.12926079715697
H        -3.33061655865076   -3.52043992621942    2.39291218520743
H        -0.33970968069544    2.43347897084546    1.03016709648154
H         1.56523812657829    1.52050961490615    4.00975743107003
H         3.26482905952870    3.02630578911811   -2.97415201818001
H         4.11605646922675    4.54392571540296   -2.60484453866227
H         2.71749886151254    4.55532819158048   -3.67770949487808
H         2.37134048677983    6.50453932672544   -1.29612729943764
H         0.64029658029904    5.93352339729567    0.72866553191443
