78
 energy: -134.542924076809 gnorm: 0.000240902857 xtb: 6.3.3 (4ae9cef)
C         0.93268876714437    0.37734211154830    1.94440806085640
C         1.81833339772997    0.72454281546147    2.92266762781321
C         3.11412054613300    0.16934764663568    2.95572014061711
C         4.07196655547185    0.54836296274457    3.91725188783397
C         5.32364124213270    0.00008728749601    3.90755508296932
C         5.67148302393515   -0.95704502311023    2.94182305187173
C         4.76267809668809   -1.35053594012117    2.00069682922855
C         3.46622603271716   -0.79689670730323    1.97875172331960
C         2.52337624976139   -1.14445869596807    0.99191694883643
C         1.28904215382645   -0.55118649787558    0.94755142993595
C         0.33115050074684   -0.84641813207491   -0.18048700021916
C        -1.01959899133451   -1.39657160096941    0.31566549167823
C        -1.66680435566794   -2.40737246633744   -0.60486710734739
C        -1.40380042537219   -2.46241322992415   -1.94910100458132
C        -2.09445005061820   -3.35771591279207   -2.79162265787806
C        -1.84214894812889   -3.41762530712593   -4.17812919755018
C        -2.53156998154900   -4.28755694542531   -4.97536155554736
C        -3.50248531325865   -5.13760552525034   -4.42277227622463
C        -3.76918790180922   -5.10237515856691   -3.08258888945043
C        -3.07723439699997   -4.21433147169468   -2.23373501953200
C        -3.32789489148336   -4.14011089102336   -0.84775454569621
C        -2.64456257183294   -3.26285085912703   -0.05646587130032
N        -1.84710323800299   -0.19337458535595    0.37841904120802
C        -2.92950366084418   -0.08763784762131    1.19420335025643
C        -3.71779476434088    1.15516978018663    1.04585026330231
C        -5.05572561489600    1.18851150602103    0.80634609328878
O        -5.53937011827148    2.44139411357652    0.72676170442141
C        -4.49422659077033    3.27316182789919    0.94480404786940
C        -3.31384643577021    2.53093095391639    1.15721282694610
C        -2.12511317579310    3.20501730712369    1.43612632007447
C        -2.14505535712340    4.58224650804906    1.46539188312722
C        -3.31905747478694    5.30010362158213    1.23327771796478
C        -4.51354907153421    4.65896508693308    0.97562228651332
O        -3.20932688636964   -0.95553590951710    1.99530569620393
C        -1.46454825616474    0.65536839616382   -0.71234938044975
C        -2.30819183744148    0.37211356932633   -1.96847209047563
O        -1.60387586976390    0.46594957849060   -3.08934739593797
O        -3.48506548313554    0.14379450297213   -1.92795631838733
N        -0.05570826597676    0.37790586600380   -0.88432003052859
C         0.77801526976156    1.39345387363625   -1.24593043227833
C         2.21307519902630    1.03174843184215   -1.27009322605902
C         2.85223079943424    0.12216494243455   -2.04901557663389
O         4.17466304249288    0.04664687926953   -1.78013506777753
C         4.41660364630153    0.93186212674469   -0.78354841051787
C         3.22994112098978    1.60109938138863   -0.43000415054501
C         3.24282022422994    2.55711758106527    0.58040591609071
C         4.43936535523829    2.80602717606948    1.21554530324885
C         5.60647857132147    2.12555192182098    0.86489518771611
C         5.61906473828683    1.18143855624337   -0.14137882315803
O         0.35635898386856    2.49766032517793   -1.51950400233326
H        -0.05579594438252    0.81043482722386    1.92673234159488
H         1.54025527615527    1.44128569909535    3.68175400175075
H         3.79882437473171    1.28450428374154    4.65950531421829
H         6.05525452331845    0.29840006467636    4.64394602708358
H         6.66539377306296   -1.37952637874994    2.94979811564534
H         5.02571149352274   -2.08505190785788    1.25317201210702
H         2.80445526227663   -1.87279337973762    0.24329259031376
H         0.80581114334057   -1.55224975269248   -0.86899197333284
H        -0.94545614180834   -1.81153767087658    1.32547461611944
H        -0.66339215985914   -1.82109319032515   -2.40563554478544
H        -1.09216340515415   -2.76180490245581   -4.59906613450343
H        -2.33466256365228   -4.32784002248108   -6.03679436064209
H        -4.03709631223415   -5.81908825734559   -5.06804133967772
H        -4.51657295251920   -5.75373368670715   -2.65281110306609
H        -4.07787868463056   -4.78937338477291   -0.42005409469989
H        -2.85716239579911   -3.19540187861298    0.99923700728864
H        -5.74596743542945    0.38369103256995    0.64743405749961
H        -1.21019804647953    2.66826809908128    1.63638604683073
H        -1.23308115642817    5.12120544183866    1.67233468244029
H        -3.29138567817585    6.37846723011504    1.26327060191936
H        -5.42947311445580    5.20178123641593    0.80704891592276
H        -1.60345185206887    1.72717028874827   -0.49926249502486
H        -2.17544646563654    0.34322349657036   -3.86534405137641
H         2.48706241003792   -0.51003424509094   -2.83558890733850
H         2.33986435640227    3.08460633509177    0.84377368633372
H         4.48127363808503    3.54109984810346    2.00494896966735
H         6.52127700532921    2.34505420659403    1.39368390727855
H         6.51747946427811    0.65487063716887   -0.41943777241300
