92
 energy: -151.469313321822 gnorm: 0.000434919947 xtb: 6.3.3 (4ae9cef)
C         1.10063159852385    2.58066352966723   -2.01576932286190
C         1.55496660934303    3.54413898325668   -2.86934300146713
C         1.92851615204154    4.81810701913845   -2.39234985142796
C         2.40046424259653    5.83490594549410   -3.24762858942822
C         2.75312962872811    7.05790403489442   -2.74958306214737
C         2.65028158091263    7.31986850220278   -1.37419728512470
C         2.19596725676776    6.35506990267910   -0.51966882722398
C         1.82448808022126    5.08271200519706   -1.00200689778424
C         1.35686080084108    4.06631733742949   -0.14543608698853
C         1.00292775705826    2.83772011702954   -0.63448323735427
C         0.48215860060008    1.76836837505044    0.28930654736782
C        -0.99814491472354    1.42365238027943    0.02954870244283
C        -1.84643554426549    1.72753228713737    1.23952175013405
C        -2.02166899391533    0.81133191646175    2.24187295835310
C        -2.79303311168069    1.11870565180349    3.38040442035456
C        -3.00481297297928    0.18256637091749    4.41396314007662
C        -3.75254605028295    0.51060491283107    5.50984256666474
C        -4.32396638716984    1.78794274519528    5.62235125295264
C        -4.14078138237236    2.71529054681562    4.63496312919546
C        -3.37479608943442    2.40819124403983    3.49171772408038
C        -3.16717521256902    3.33748086458311    2.45080802801319
C        -2.42683889537180    3.00521378656657    1.35339577520604
N        -0.98906369026487    0.00980879683985   -0.29546023353241
C        -2.11143472463982   -0.63195446677421   -0.71005841687012
C        -1.89873139678011   -2.09154495061752   -0.87749085387627
C        -1.79121908371624   -2.84562821282278   -2.02641530896032
C        -1.81223296913911   -2.48410533407213   -3.43106520106671
C        -1.27689492573324   -3.36595548704461   -4.37360449330703
C        -1.25667233030091   -3.02950917507732   -5.71306289691905
C        -1.76606348062096   -1.81102060990571   -6.13323897756501
C        -2.30469074168637   -0.93412821849257   -5.20479064245783
C        -2.33296248033799   -1.26262271660864   -3.86274105976310
O        -1.52859851328053   -4.13101166193452   -1.69361210874184
C        -1.48199504501127   -4.22000502330782   -0.35213416182222
C        -1.19703498952368   -5.53911233499225    0.26612822646657
C        -1.70184856502183   -2.99494063965080    0.20262780539270
O        -3.16129473694158   -0.05146122710507   -0.88598610497090
C         0.30089905869518   -0.60692221551227   -0.14506751984094
C         0.71862790133954   -1.37383173154268   -1.41874988197647
O         0.51845525459240   -0.65738628801977   -2.51880856805093
O         1.20023469351089   -2.47288280131504   -1.41472815150419
N         1.18482487439230    0.49929915818761    0.12995326081369
C         2.50221510184521    0.41358613792346    0.47317522836194
C         3.08233738254791   -0.94679331112612    0.40115642837937
C         2.79585363686824   -2.05594488024232    1.16797583704964
C         1.85318990915180   -2.24578067518978    2.25390317930764
C         1.36217160286746   -3.52127531068827    2.53828259388077
C         0.42780304961714   -3.70010456369486    3.53968379348268
C        -0.02889405059644   -2.61549988243953    4.27183008696661
C         0.46396397733939   -1.34702579757921    4.00633748912005
C         1.40116130539999   -1.15986750142455    3.00853427176996
O         3.54878625371677   -3.09771732768212    0.75273709513711
C         4.32423913599474   -2.67469068929424   -0.26277810014423
C         5.24312239409296   -3.64857907027812   -0.90567434437927
C         4.08590579852789   -1.35546385065088   -0.51461286720183
O         3.13885940579420    1.39930771428731    0.78045525340481
H         0.81388480025993    1.60996830886515   -2.39036691408202
H         1.63380226922218    3.34289462253843   -3.92847850831857
H         2.47893482449629    5.62846746625379   -4.30579314900535
H         3.11490654754071    7.83238920358846   -3.41016170688737
H         2.93490189431666    8.29187936285564   -0.99841592348125
H         2.11694622053254    6.55026503350307    0.54017082282796
H         1.28949105233954    4.27010550097938    0.91361671587482
H         0.61839102721924    2.10694531555785    1.32601312070995
H        -1.38609425256440    1.98253743208294   -0.83112055595456
H        -1.57539079382369   -0.17126977360190    2.17424788473441
H        -2.56775186827522   -0.80130550208906    4.31829863301801
H        -3.91278880129711   -0.21134331529080    6.29767720540443
H        -4.91230205403242    2.02923807181782    6.49550612808704
H        -4.58207308980302    3.69855577329741    4.71478030361459
H        -3.61161523703776    4.31885621278620    2.53421443118575
H        -2.27605810255411    3.71859338917526    0.55623885390936
H        -0.87636480080330   -4.31107664712946   -4.04008280521646
H        -0.84254937175191   -3.72011581114875   -6.43309221934663
H        -1.75041148310399   -1.54988049047449   -7.18089712923537
H        -2.71347414081258    0.01089743569371   -5.52988557526328
H        -2.77566239748551   -0.58588996466812   -3.15141767576887
H        -1.29271900350013   -5.46442575760939    1.34464839088568
H        -0.18458083521419   -5.85542606204470    0.01776438065853
H        -1.88768573564641   -6.29247338358423   -0.10914755916826
H        -1.73445329760254   -2.76079345812485    1.24766657560396
H         0.30950895746495   -1.34066732235881    0.67959762063320
H         0.76884780252433   -1.15329347489859   -3.31609130402714
H         1.71519778232853   -4.35865880573169    1.95713071420345
H         0.05229809120649   -4.69053107286777    3.75246865969447
H        -0.75946967204487   -2.75978091219579    5.05430102810194
H         0.12029957858950   -0.50087432975320    4.58324951900168
H         1.80069851290501   -0.17517721446008    2.81769808739012
H         5.92729182226674   -3.12741520485628   -1.56804787522042
H         4.67450863516807   -4.37682397818557   -1.48373392659975
H         5.81066963253953   -4.18728941664868   -0.14902099439108
H         4.54764972081585   -0.74060854221825   -1.25946474320403
