62
 energy: -117.398417100698 gnorm: 0.000943289285 xtb: 6.3.3 (4ae9cef)
C        -2.46783953639167   -1.82694753212766    1.16598558878048
O        -2.27831452493692   -0.91493856160489    2.15919766516148
C        -3.26729766564781   -0.78649312458988    3.15212029612376
C        -3.45181597534669   -2.80385908849363    1.16681725234200
C        -3.54475465638752   -3.69269021460474    0.10820958401939
C        -2.66378594114648   -3.61465924959773   -0.95111058540525
C        -1.68406494404725   -2.63339835974688   -0.96324720250205
C        -1.57712493188778   -1.73621984186271    0.08140264792410
C        -0.53815503349654   -0.65650670398908    0.16193637869920
C         0.61821525396085   -0.66653973430480   -0.84790140460861
C         1.69852609450114   -1.65562128023701   -0.51114338747395
C         2.43052120506424   -1.52121189603335    0.65682718904862
C         3.43486838249603   -2.41764191087653    0.97484915459040
C         3.71066635501386   -3.46084708419793    0.11244978248798
C         2.99332267445644   -3.60986559936739   -1.06160084508479
C         1.98474505699579   -2.71128164417218   -1.38760086099576
O         1.22977352873509   -2.78743443299664   -2.52098738759665
C         1.55221955385311   -3.76366996584058   -3.48232557563844
N         1.08581834051315    0.71762255968472   -0.74775363472280
C         2.27509325118089    1.13368342110471   -1.23806374106907
C         2.55987782282635    2.57673311250409   -0.96037598498209
C         3.26541928278879    3.09517128015137    0.08464941490993
F         3.73427102091625    2.34073122385532    1.09153558611063
C         3.41623095999520    4.49918053415121    0.05985255439393
C         2.81685737942189    5.03624215027219   -1.03025514002405
S         2.07480968714892    3.84614786761106   -2.02306163720242
O         3.05246234623416    0.41962615891942   -1.82699657466726
C         0.07335283647566    1.58356866435673   -0.17847547855720
C         0.54047466400966    2.23137869478890    1.14438336877481
O         0.98675247711195    1.34139098122888    2.01229150538915
O         0.48771725295581    3.41377732047836    1.34501358633967
N        -1.05633893554409    0.70723917842300    0.00974891091913
C        -2.34753844161697    1.09937577633686   -0.12170362760339
C        -2.51576321025085    2.57784403136875    0.03049433428569
C        -2.44022170718133    3.28376834184277    1.19692133523804
F        -2.11974030030006    2.71327224330594    2.36925587760577
C        -2.73629014397909    4.65794308131640    1.07568427862664
C        -3.04079004135519    4.97996891086627   -0.20613896848105
S        -2.98760000064025    3.62139916508051   -1.25821106453865
O        -3.29236253202320    0.36714367911131   -0.29763512436734
H        -3.30577017848560   -1.66800905949284    3.80073723736323
H        -4.25102694963106   -0.61274369727901    2.70719198215695
H        -2.97868182568332    0.08340578556728    3.74065137804374
H        -4.15185125454686   -2.87990088039613    1.98355959551465
H        -4.31648232660208   -4.44807614488143    0.11953038763093
H        -2.73902294803770   -4.30833682572453   -1.77449506945649
H        -1.00107308534526   -2.57910387944937   -1.79458643352107
H        -0.10626206560261   -0.70141568068871    1.17336509085431
H         0.25890558303387   -0.84161895397420   -1.86729802488082
H         2.22500837427626   -0.69119159514542    1.31589101010680
H         4.00183994139362   -2.29558567428851    1.88461608434639
H         4.49477550389984   -4.16595898471880    0.34515814244919
H         3.23501243731178   -4.42741149646635   -1.72174000072166
H         1.40856782382248   -4.77590156309189   -3.09060447822017
H         2.57980951372037   -3.64891801449606   -3.83911971162864
H         0.86322749657136   -3.59854174560757   -4.30976165017439
H         3.93793105783803    5.05118652932849    0.81838043283578
H         2.76247876042619    6.06638092892283   -1.31752851596083
H        -0.18420955706424    2.41027662061701   -0.86009656267009
H         1.26204996517240    1.76349069310145    2.84369080652815
H        -2.71010385126357    5.34367701101663    1.90102475609958
H        -3.29731931967667    5.94091447505362   -0.60360552294309
