72
 energy: -111.304008210802 gnorm: 0.000489177022 xtb: 6.3.3 (4ae9cef)
O        -0.19733480423397   -2.18546571421998   -1.71609197502510
C        -0.77258104163744   -1.18433439140856   -1.33677191548953
C        -2.25442167657119   -1.01738993180403   -1.35322153242356
C        -2.84249922250052   -0.05514970491554   -2.16488540102989
C        -4.21850319482065    0.10660645439008   -2.16996394830710
C        -4.87363121565680    1.13235674484082   -3.04498230903306
C        -4.99232346019923   -0.70042251960355   -1.34319507453241
C        -4.42258565259471   -1.67867968496713   -0.54417980617231
C        -5.26026115509416   -2.54165960706176    0.34828433911713
C        -3.04342800264352   -1.84277938875341   -0.56923568640707
N        -0.08620763602617   -0.11302280481018   -0.86194628498127
C         1.35576391688139   -0.13038206052983   -0.78734734383871
C         1.98145085410823    0.48990949436119   -2.05161301168185
O         1.07605938523714    1.07325143975703   -2.82966054464282
O         3.15223621242158    0.45818445868006   -2.30961840636185
N         1.64843553554090    0.67499006978580    0.36877227772488
C         2.26081649444688    0.24747710496223    1.52275607464023
C         3.10819536643466   -0.96546059527287    1.41136077262368
C         3.00437467412265   -1.92081394886036    2.41728254192086
C         3.78056019792384   -3.06883952358933    2.38121824844520
C         3.64289121787427   -4.11952815656966    3.44058381059770
C         4.67566638878937   -3.23682153063711    1.33189228771243
C         4.81225071430288   -2.28221484392601    0.33322375800765
C         5.80719945913988   -2.46154016265012   -0.77169286273506
C         4.02113927942838   -1.14231957685165    0.37850873596194
O         2.11222910297163    0.85488355546460    2.56370050629999
C         0.63570019249918    1.71513079813766    0.44565890213641
C         1.06080627393015    3.00406794301074   -0.21620141047528
C         0.12612867114675    4.01751316925087   -0.39781016178055
C         0.48891745989190    5.20787816557791   -1.00048352280120
C         1.79273542247985    5.40362471036228   -1.42424899673778
C         2.73356624231345    4.40955072036476   -1.22283349739522
C         2.37206025218345    3.21817456059017   -0.61655918872958
C        -0.62072532294139    1.07612726818928   -0.21714383358024
C        -1.67779949611311    0.73795561353245    0.80218526880308
C        -1.42779500183702   -0.22839409389844    1.76914073452215
C        -2.39436728697625   -0.54528932806529    2.70460855278979
C        -3.61862712181704    0.10159744295850    2.68523975606346
C        -3.86913549212414    1.07248969213114    1.73178514200696
C        -2.90129320669082    1.39199078663000    0.79702985120158
H        -2.22059167555059    0.55994464113985   -2.79995204689371
H        -4.13527841503972    1.79113229034310   -3.49511212722591
H        -5.57795481235155    1.73175332084374   -2.47056484021795
H        -5.42916357129955    0.64298802317944   -3.84459393651104
H        -6.06476847943938   -0.56288046377625   -1.33170191176537
H        -5.06835883600737   -3.59439831445715    0.14839247116903
H        -5.00892880435581   -2.34858011999742    1.39073265106474
H        -6.31919212838124   -2.34456121221083    0.20313422404150
H        -2.57690199849861   -2.60211337190752    0.04035930479400
H         1.72792871777124   -1.15884496194993   -0.69513195579867
H         1.49702984929527    1.44927624242192   -3.62012774066931
H         2.30671189739682   -1.75584701763647    3.22544670083628
H         3.25262138257691   -3.69251159869769    4.36097500984399
H         2.95340543817637   -4.89546744772001    3.10623780671695
H         4.60189815359806   -4.58951685362873    3.64649449410685
H         5.28508120839086   -4.12938427888452    1.29667566257212
H         5.93944151002324   -3.51463083114548   -1.00892912898391
H         5.48541491750895   -1.93106064359340   -1.66437428340852
H         6.77446311593187   -2.05935261186053   -0.46890925164836
H         4.13014534584009   -0.39040702452261   -0.38730867713163
H         0.45449755785092    1.91457509342005    1.51034627504205
H        -0.88747985663330    3.87792140172837   -0.05077322217369
H        -0.24685480193838    5.98688126568408   -1.13546474095769
H         2.07552362594293    6.33199688191602   -1.89775873608732
H         3.75650747732406    4.55942524177334   -1.53423262505924
H         3.11804752302699    2.45702591161908   -0.44687858229022
H        -1.03196746471417    1.75515131488995   -0.97252546694003
H        -0.47601809744875   -0.73961069218643    1.78472788067077
H        -2.19176628241008   -1.29940053242887    3.45047101602550
H        -4.37484652650081   -0.14849469420748    3.41452207537065
H        -4.82150724165607    1.58088568535170    1.71350074741298
H        -3.10280305203349    2.14485673190089    0.04878010768078
