78
 energy: -143.000132204302 gnorm: 0.000287891457 xtb: 6.3.3 (4ae9cef)
C        -2.76613467352722    0.42940507327629   -1.37463755615560
C        -2.13848105323137    1.77410127473911   -1.63713998579109
F        -0.90394433536047    1.71563095416942   -2.16072077104234
F        -2.03675468293744    2.53134108168303   -0.52638783755999
F        -2.85376887510852    2.51163919332869   -2.50044193314176
C        -4.07497540729153    0.25766422862468   -1.81564359269774
C        -4.74254898960074   -0.93351892315179   -1.60954180284793
C        -4.10149881437216   -1.96856534074820   -0.95436315515238
C        -2.80902445389089   -1.79460621373846   -0.50166915820993
C        -2.11506433892460   -0.60305013914450   -0.69198458522782
C        -0.70667990558852   -0.55515766204593   -0.14517477371253
C         0.39234864874541   -0.68792310408254   -1.22397782750990
C         1.04674673193974   -2.04953338423715   -1.14837780674237
C         0.69061875354958   -3.13258975020985   -1.95231507538321
C        -0.45147613116491   -3.17310948002533   -2.93332059657283
F        -1.49769438037359   -3.85402375013045   -2.39624295090411
F        -0.13228228875925   -3.83510528329424   -4.05470082793842
F        -0.97151932086939   -2.00660118592152   -3.33566814829848
C         1.35373081303739   -4.35245297801432   -1.81624936514235
C         2.36170028266809   -4.51020815081445   -0.88749246012333
C         2.69331457864129   -3.45122066818515   -0.05935215586463
C         2.03738622043989   -2.24335121092898   -0.18782139513462
N         1.33465063442677    0.37466539235830   -0.90806905353560
C         2.48337644705544    0.49717145544026   -1.62839162986095
C         3.35255103228593    1.62967990753515   -1.19470613032780
C         4.48533104519495    1.35540471086426   -0.44318087483827
C         5.30393943582292    2.39044792344530   -0.00960516555847
C         6.51553927803881    2.08735211820529    0.81873504496250
C         4.97513136007635    3.69293906598151   -0.35666628415212
C         3.85756909659567    3.98091987266697   -1.12923124197166
C         3.53401757322546    5.38959990502721   -1.52130909039413
C         3.04393893116714    2.93611360070810   -1.54490001231416
O         2.76288852811023   -0.28528306962186   -2.51084597915035
C         0.86891294775956    1.26437134777411    0.12305028111940
C         1.86038894807254    1.36156302638318    1.30353693101772
O         2.25106627502983    2.60396494279930    1.52129901720528
O         2.26992104718033    0.39707088217317    1.89303714418334
N        -0.36486331561018    0.65470915614537    0.57725769401606
C        -0.81982196029530    0.94818185019858    1.82698705101720
C        -2.04448745318415    0.18456185294749    2.20867682044859
C        -3.29965490380178    0.68284236982107    1.89313354858011
C        -4.43728393502318   -0.05586472948200    2.18462482141629
C        -5.79928294544163    0.45578806800111    1.82891196956118
C        -4.29342818202078   -1.28958110777778    2.80451595819197
C        -3.04570913018753   -1.78824145450287    3.15453329173685
C        -2.92838895063602   -3.12032771622017    3.83060594905684
C        -1.91722460185374   -1.04002513651698    2.84918873899633
O        -0.25731822527174    1.77126943388575    2.51807625674334
H        -4.57165079729531    1.06466242390232   -2.33121900196473
H        -5.75508405367367   -1.04806639955685   -1.96315168620644
H        -4.60292606837464   -2.90953252838285   -0.79208974750851
H        -2.31937376988539   -2.60497664118434    0.01646415181356
H        -0.61113803593445   -1.40612566186651    0.54482554134958
H         0.00478776891299   -0.50373803263408   -2.22786957055525
H         1.06935829675123   -5.17782451169848   -2.45133313153064
H         2.87429345219356   -5.45567777242743   -0.80453233939997
H         3.46319223696268   -3.56393246363768    0.68848549600260
H         2.29522862165487   -1.42732479104902    0.47106791667183
H         4.72165767368795    0.33272111034956   -0.18783593587481
H         6.23944012718235    1.50869189032234    1.69920397063666
H         7.00942975599449    3.00110983993651    1.13927373316141
H         7.22431839744448    1.49377180203540    0.24271060952739
H         5.60704920174241    4.50397570412347   -0.02192897455099
H         4.06892723895729    6.10111791292547   -0.89757447133582
H         2.46605223134653    5.57620894788722   -1.43398751246198
H         3.81997820438889    5.56149596324553   -2.55911381793630
H         2.17216730456340    3.13730277322834   -2.15053932963558
H         0.68897558171748    2.28640890549121   -0.24408563513722
H         2.82838371435552    2.65644764795848    2.29955941566108
H        -3.38507387464437    1.64950594348173    1.42136033198725
H        -5.73489417883412    1.42814910664052    1.34866192395940
H        -6.41532709640319    0.54831286524475    2.72202847794464
H        -6.29598278333762   -0.23655958121662    1.15044751510141
H        -5.17556416378344   -1.87266737623698    3.02944176584369
H        -3.56811834238447   -3.15808953799931    4.71036532740763
H        -3.24563531737201   -3.91489018417631    3.15544126908482
H        -1.90358788585891   -3.31392566235844    4.13583648036646
H        -0.93464079478941   -1.40461094173611    3.11404393257673
