66
 energy: -138.758739627930 gnorm: 0.000265998898 xtb: 6.3.3 (4ae9cef)
C         0.51937255872278   -3.43039693671337    1.62008967645219
C         0.76272274878137   -4.41316779548869    0.50562780318069
F        -0.06610191893493   -4.24285985804167   -0.54717064769123
F         2.00729506410169   -4.32606765594089   -0.00039944669348
F         0.60765130175086   -5.68481757969210    0.88821281589810
C         0.28816933997012   -3.92231413157706    2.89808723881425
C         0.08732334102490   -3.05248998643127    3.95403130870382
C         0.12877200235922   -1.68812583677108    3.73419410922591
C         0.35879353501464   -1.19918778927139    2.46125583780492
C         0.55308351506442   -2.05269662898193    1.38472084119317
C         0.75390281475782   -1.50298547275011   -0.01043033481811
C        -0.60031322358162   -1.41520773751662   -0.75188601222780
C        -0.51121891426333   -1.56247437798239   -2.25799551048193
C        -1.67097431415435   -1.69466050887125   -3.03616686664842
C        -3.04658654239990   -1.61463891586741   -2.42547183559123
F        -3.26615718536590   -2.47822800540975   -1.43240713057057
F        -4.02428688460389   -1.81498347219514   -3.31606851273521
F        -3.27681170029424   -0.37043615566568   -1.92142762612296
C        -1.59089443116520   -1.83489580920525   -4.41575419378657
C        -0.36210310913420   -1.83895248901447   -5.04903776804758
C         0.78706437180611   -1.68432238418270   -4.29853963140866
C         0.70983831030099   -1.54799780909897   -2.92313221808142
N        -1.05319567245286   -0.06671984197445   -0.38144214899747
C        -1.97675465125140    0.04486826654481    0.65076877791124
C        -2.14501342312200    1.42681587693061    1.19072576211871
C        -2.39860785073104    2.52519606841699    0.37396628455271
C        -2.56208675275526    3.78208480107816    0.93128687178623
C        -2.46336815499277    3.96298721342921    2.30004959715389
C        -2.22933158678369    2.85716957539247    3.09906305450830
F        -2.13627494556988    3.01944873624984    4.43046081427522
C        -2.08064754611670    1.58874599579101    2.57034945915261
O        -2.61065068820410   -0.89835032009595    1.04978933250254
C         0.12619432659599    0.75891755536623   -0.45160447576679
C         0.37208804413338    1.25145466982216   -1.90589700215546
O        -0.73867711771850    1.44645566981085   -2.60865128094105
O         1.46410697528740    1.48181383033892   -2.32751015868434
N         1.19052301087802   -0.11088300163957    0.00892911334858
C         2.48366712810298    0.22673016023233    0.27987667026035
C         2.74893720150291    1.69433547496045    0.39021574521475
C         3.69731419809494    2.27790865427910   -0.43710223411403
C         3.96260396580495    3.62678449148058   -0.29171115353497
F         4.87137832060634    4.20401839539689   -1.09715552023586
C         3.32903049846213    4.40438388749332    0.66181777694059
C         2.40586350093447    3.80360736730567    1.49947550149418
C         2.11493855071048    2.45720651170871    1.36644960798520
O         3.32872540743652   -0.61917373706067    0.46302323336117
H         0.26661714496046   -4.98803154112456    3.06361755858816
H        -0.09439953843076   -3.44196322860045    4.94304167383078
H        -0.01564868525180   -1.00170550295510    4.55485591892872
H         0.40163665995403   -0.13253899323909    2.30262461820933
H         1.49516882915167   -2.11335793056087   -0.52829678664613
H        -1.31827073331070   -2.12982444790936   -0.34118130003058
H        -2.49572040181078   -1.93835641032228   -4.99371342936048
H        -0.30985036945398   -1.95093192689686   -6.12014323442429
H         1.75345362706932   -1.66429822510993   -4.77685644544870
H         1.63143918931617   -1.41579575498126   -2.38142431004950
H        -2.50247830041470    2.39675877115719   -0.69235913042993
H        -2.76557593840032    4.62739258015094    0.29283436958351
H        -2.57786021508481    4.93566359221457    2.75085767650224
H        -1.92192020571707    0.73941082216872    3.21619805555423
H         0.03360575081638    1.66018551041530    0.16860218378094
H        -1.53045896006418    1.11008274094832   -2.15146343801293
H         4.20729996773556    1.69720054611466   -1.18750534908075
H         3.56787752842398    5.45257622542806    0.74532432099236
H         1.91305310920441    4.38717406850738    2.26217637627897
H         1.41272712268002    1.99645513998321    2.04730614672462
