68
 energy: -124.358797457794 gnorm: 0.000927499937 xtb: 6.3.3 (4ae9cef)
C        -0.14816427536760    5.45094266863076   -1.10753020743406
C         0.14846686757827    5.19667121936573   -2.41635334985763
C         0.05525347418289    3.88825687885018   -2.91032193685487
C        -0.31248328982804    2.85783145141999   -2.08981005772502
C        -0.60155416159673    3.07872912659451   -0.72532979435663
C        -0.53268733364108    4.41130779922873   -0.23508608199401
C        -0.85465454823607    4.67537087866022    1.11247759558520
C        -1.23961709089045    3.66341725792506    1.94176469630442
C        -1.28888269265311    2.34402632901869    1.46894683414951
C        -0.96494208472568    2.03767200520486    0.17391989482632
C        -0.95906191883341    0.60806648052956   -0.32652006075737
C         0.47878820899947    0.10006450130039   -0.58816106353675
C         0.65487194346672   -0.52184682423548   -1.95434444586689
C        -0.10242075694674   -1.63033853178736   -2.24698736213063
C        -0.00846135429805   -2.27637304296668   -3.48448431311394
C         0.84808316293076   -1.79931732614082   -4.43459045090440
C         1.64473052841190   -0.66500927507398   -4.17935649864135
C         1.56397770810770   -0.00916724897964   -2.91803656278530
C         2.39065992765769    1.11687023133236   -2.70762778177053
C         3.23229794272310    1.57061652058557   -3.68379606479341
C         3.30095735180121    0.92724066201292   -4.92765368465070
C         2.52456559676508   -0.16976656244642   -5.16542482104668
N         0.68421728239743   -0.91347281798592    0.44271628108826
C         1.91146048590644   -1.44725670349350    0.65644792402434
C         1.94042791636000   -2.46500180179858    1.75544274643884
C         1.33046511232131   -3.69052137143814    1.86307745707446
C         1.75144905497521   -4.23654057838691    3.08960724540237
C         2.59279767715148   -3.29973563797254    3.64560663607408
C         3.27354903482920   -3.32473804869694    4.87277085705289
N         3.81498268691136   -3.36229973548848    5.88260517476244
O         2.70628992847871   -2.22901509163255    2.82764069711950
O         2.88459198983427   -1.15439742038041    0.00292293295903
C        -0.45197343992307   -1.06680118416500    1.30565153322587
C        -0.21833597425410   -0.45954483948131    2.71382436654574
O         0.88437652203249    0.26924173406984    2.77108205117539
O        -0.97151183656913   -0.63259965854557    3.63150423026860
N        -1.50077948112450   -0.35271795932320    0.62303347667806
C        -2.84252595611308   -0.40452449830138    0.84505674725674
C        -3.34331294793832   -1.36566468513049    1.84859853981628
C        -4.52961441162587   -1.28247335964436    2.54120921914705
C        -4.58150916591303   -2.40728191101747    3.38010944915897
C        -3.42516260001970   -3.11314279386944    3.13295749720766
C        -2.95659001442707   -4.31784301089576    3.67955639533250
N        -2.57416795023147   -5.30446752784178    4.12198894517050
O        -2.67936929586952   -2.48097776735141    2.20057359675293
O        -3.61008149527569    0.32285778264332    0.24680238731097
H        -0.09643583031186    6.45693578883128   -0.71651511191592
H         0.44442768960858    5.99738649229619   -3.07759580600311
H         0.27529410655153    3.69352758417003   -3.94950460783355
H        -0.38719168505381    1.86509832891812   -2.50246683007082
H        -0.80001905529113    5.69296256693521    1.47052285404545
H        -1.50599701536818    3.86264420618139    2.96904797856909
H        -1.60904358500336    1.57192146319785    2.15295114103668
H        -1.57891671717325    0.54912674632019   -1.22854058793631
H         1.20182439943102    0.90271388523754   -0.42659947612692
H        -0.79076911644060   -2.01665213811977   -1.50794127846242
H        -0.61795981720941   -3.14658799450472   -3.67678457815087
H         0.92973820746060   -2.28432225795910   -5.39646840984182
H         2.37243303053569    1.63695796745156   -1.76369452942882
H         3.85451232641993    2.43340173024638   -3.49767371355970
H         3.97152453317053    1.30154889215273   -5.68684226450980
H         2.56993464406634   -0.68139126683548   -6.11618892149505
H         0.68219978957908   -4.15301598830670    1.14672185212623
H         1.47443776191766   -5.18037992699409    3.51232898329657
H        -0.71902762649707   -2.12166688860629    1.44398827466605
H         1.01676809557035    0.65642778081009    3.65274349674216
H        -5.25364974796814   -0.49965829417105    2.44936472896236
H        -5.35348271552018   -2.67332699015124    4.07266593621708
