29
 energy: -39.208090225100 gnorm: 0.000288546900 xtb: 6.3.3 (4ae9cef)
C        -4.99354278110871    0.02977059482903   -1.40081656106262
C        -4.20559999384430   -0.39821149371019   -0.43329510051910
C        -3.54708158013184    0.48907339166254    0.58133002929558
C        -2.05113182102975    0.34858488253268    0.48331962280070
C        -1.33493454500697   -0.40079562310116    1.40641936225205
C         0.03514813182566   -0.54272220452501    1.29210870041969
C         0.72701634722991    0.05413057315753    0.24191337054679
C         2.18488689166707   -0.09405567581500    0.12024382963438
C         2.77600608112405   -0.31960771758506   -1.12078066286524
C         4.14678685363644   -0.45927527280703   -1.23306512628787
C         4.95047545338705   -0.37127968751163   -0.10885302520246
C         4.37407285745903   -0.14544925258032    1.12977724684889
C         3.00306342233824   -0.01035753636594    1.24453151039403
C         0.00464576082165    0.79721498578334   -0.68941912228029
C        -1.36297531730647    0.94226699992940   -0.56798693108723
H        -5.23477776636034    1.07424538389927   -1.51653397343663
H        -5.43910926597347   -0.64254654580788   -2.11427358487907
H        -3.97400783959271   -1.45131781675502   -0.33816134915125
H        -3.87658209572203    0.19753132118707    1.58225305930220
H        -3.83953847312124    1.52656993943514    0.40637175017460
H        -1.85400565586753   -0.87744804210729    2.22646562176081
H         0.57352328510367   -1.13994692867325    2.01382856496160
H         2.15238737981403   -0.40539290118309   -1.99892550717365
H         4.59079000684552   -0.63938607739288   -2.20155285692206
H         6.02166623659410   -0.47821212577555   -0.19761680145715
H         4.99655170613514   -0.07219425545651    2.00995106312263
H         2.56032262118316    0.18243578128808    2.21106066741296
H         0.52524226377277    1.28182439294777   -1.50268699864980
H        -1.90929916387144    1.52454891050140   -1.29637279795239
