84
 energy: -136.991340626079 gnorm: 0.000290359118 xtb: 6.3.3 (4ae9cef)
C         3.61653208228985   -1.68080325822879   -1.11345134616422
C         4.77962792335116   -2.39415646641866   -1.18228783682097
C         4.78005086099029   -3.79851455223785   -1.06542947648898
C         5.96410458535903   -4.56225753330411   -1.13043460615963
C         5.92174374854540   -5.92431563565995   -1.02999793615706
C         4.69437237528415   -6.58573611001740   -0.86142939839385
C         3.53001469608450   -5.87444416975948   -0.79312589733924
C         3.54026031535421   -4.46681075851418   -0.89058040827776
C         2.35849332896464   -3.70447174335931   -0.82078110367083
C         2.38810415768463   -2.33562156258784   -0.91220183618422
C         1.09257558204596   -1.56131066994568   -0.84297067298078
C         0.22541342373874   -1.94298264949559    0.39734434804558
C        -1.15817626148857   -2.37756694116618   -0.00445173367887
C        -1.61123481994665   -3.63643901644206    0.28172983424031
C        -2.89957436001121   -4.05226881488329   -0.10900329546322
C        -3.38902184806625   -5.34236414438463    0.18185392255607
C        -4.64704942756604   -5.71369592670154   -0.20204187388104
C        -5.47160676267863   -4.81399879984339   -0.89544418123288
C        -5.02517696177904   -3.55662271571255   -1.19248859308223
C        -3.73340040555508   -3.14269372934886   -0.80905704699951
C        -3.24028652416155   -1.85239941260583   -1.09563204997043
C        -1.98690361136191   -1.48021775733930   -0.70811504750597
N         0.20688365558125   -0.71098552170870    1.20221342762680
C        -0.87778592206450   -0.34051099438020    1.96193177970870
C        -0.97649323468397    1.13263019251554    2.20631234011029
C        -0.04704095419657    1.83515280831883    3.00102521676047
C        -0.14644713185075    3.19095748928779    3.13251185092345
C        -1.17162338236771    3.91189416921109    2.48451506684017
C        -1.29082363068183    5.31213630932124    2.59596858500756
C        -2.31190619633807    5.97569708144157    1.97645347264928
C        -3.25762203818818    5.27226684523116    1.21458845024917
C        -3.16425002394298    3.91639420277333    1.07814139592069
C        -2.12381101174692    3.20239562401515    1.70697446628237
C        -1.99996428957546    1.80432496106276    1.58728326981659
O        -1.68065117303256   -1.14760102369084    2.36832925489415
C         1.18817911928246    0.21098087544706    0.67124896400203
C         2.55861908181565    0.03791720782448    1.38593809600703
O         2.54901206140373   -0.79412962750011    2.42001870563877
O         3.53130840752899    0.64254930910620    1.04558763057911
N         1.27788053356427   -0.12316865639969   -0.72328981362572
C         0.87675744252654    0.70738336934404   -1.74267750743866
C         0.79106104803007    2.15321367926348   -1.39454110760248
C        -0.33834810987606    2.84138371047552   -1.76540310551791
C        -0.49560027609401    4.20387462396164   -1.44658101462582
C        -1.63966828523625    4.93532187468362   -1.82739077631218
C        -1.75382540636891    6.26055238192091   -1.51615626229478
C        -0.73757029736759    6.91144847457498   -0.79953027440403
C         0.38115259222927    6.22895760319437   -0.41274122427211
C         0.53713692666992    4.86474416348547   -0.73101634751590
C         1.69747771477641    4.14035536202966   -0.38513490457746
C         1.83090042135864    2.82114618758217   -0.71087319273599
O         0.60424301717761    0.27014467780988   -2.83960939612953
H         3.63398755536779   -0.60751108984935   -1.21785388914290
H         5.71931117185729   -1.88332898938384   -1.33191974341336
H         6.90538337153188   -4.04829008839080   -1.26245323359245
H         6.83170129046204   -6.50402307466343   -1.08110046191182
H         4.68020081494243   -7.66327470531581   -0.78657343107935
H         2.58283695060144   -6.37904650406742   -0.66448283131533
H         1.41612709491669   -4.22313081686304   -0.70788410158691
H         0.53482164827615   -1.73944458804676   -1.77212957451845
H         0.70990334429854   -2.74650795312215    0.96587060457111
H        -0.98718399087805   -4.33017890349409    0.82804510745071
H        -2.75170936277695   -6.03109996460094    0.71791972982364
H        -5.01717039548122   -6.70254729686369    0.02590553753104
H        -6.46296987917055   -5.12486617040576   -1.19101617985200
H        -5.65674591712869   -2.86040139445630   -1.72583764418285
H        -3.87496402856355   -1.16038915130291   -1.63057655022069
H        -1.62031884768364   -0.48840440927525   -0.93647782686509
H         0.73889500097425    1.29376106111271    3.50822982589944
H         0.56590678497522    3.73115662883331    3.73853804086515
H        -0.56216713758093    5.84918288249350    3.18568881375981
H        -2.40107204484959    7.04760472099415    2.07084923197123
H        -4.06016488305187    5.81370950989400    0.73652710342393
H        -3.88758765715453    3.36890938518410    0.49167400013841
H        -2.71943528952607    1.25810343919733    0.99381297825567
H         0.88713657072082    1.25583664589354    0.80594476021678
H         1.66833725937576   -1.19320418707481    2.54518855139740
H        -1.11974267904405    2.33139081151033   -2.31070672419655
H        -2.41912314430374    4.42882914839822   -2.37781767683523
H        -2.62729548847402    6.81850428747788   -1.81968475012659
H        -0.84613610043810    7.95913747936029   -0.56070230797289
H         1.16864495809052    6.72639719392253    0.13488251106119
H         2.49215095705658    4.65107980329366    0.13881733313099
H         2.73239931723085    2.28431029734512   -0.45678001259518
