66
 energy: -113.702138285213 gnorm: 0.000217714946 xtb: 6.3.3 (4ae9cef)
C        -1.24927117401031   -3.50551112240855   -0.73719733196362
C        -1.60506060570458   -4.45258616385798   -1.68097687733732
C        -1.96694020642542   -4.05987213373197   -2.95801151166333
C        -1.96809769805025   -2.71588088509926   -3.29072431077763
C        -1.60562237851426   -1.76871105308671   -2.35074860123785
C        -1.25220462115335   -2.15821969344934   -1.06550636714957
C        -0.82188930212090   -1.13014186091142   -0.05265937417959
C         0.61888584178116   -0.65551447537789   -0.31910856354462
C         1.62828350358911   -1.28844637110035    0.60235439611728
C         1.68271894620597   -0.91535821542028    1.94005883111658
C         2.64113039228049   -1.45968949895895    2.77485599400148
C         3.54740394455108   -2.38411356191698    2.28272828794518
C         3.47852157500458   -2.77983111252956    0.95821189541110
C         2.51954634505498   -2.23758237894192    0.12137715966525
N         0.55086086340817    0.78756923336174   -0.13614598698260
C         1.58795124780045    1.63725838586540   -0.21631312667518
C         2.90660990475864    1.03996652520359   -0.50856871732773
C         3.96928536896918    1.05930048430315    0.33170679511371
C         5.10324228877083    0.37352417620559   -0.18826296212342
C         6.34756665937989    0.15128570545813    0.40438615657780
C         7.30680388855498   -0.55396271970619   -0.28619119827989
C         7.05284062465882   -1.04443853315835   -1.56750032919580
C         5.83246761847520   -0.83793515310857   -2.17681964269130
C         4.86378220882564   -0.13349636899181   -1.47895952957067
S         3.25121499506874    0.23641537753675   -2.01898053435558
O         1.45959100892510    2.84225413776553   -0.00471646045819
C        -0.80765125295574    1.25043353620575    0.08895046126718
C        -1.00805607898453    1.79155229895678    1.54726197680245
O        -0.37031845511427    2.90455816864821    1.82100772553368
O        -1.71416789608204    1.21233909140256    2.32313756073862
N        -1.62022589715620    0.08876554707278   -0.13875101147927
C        -2.94735567939835   -0.03302692348180    0.19039088076531
C        -3.77529108232619    1.17937169972084    0.28642894667993
C        -4.93875848088520    1.20403191590305    0.98902302379249
C        -5.60548198645095    2.45781927825839    0.94779480998736
C        -4.91140724042224    3.39535448169928    0.15910581540370
C        -5.38223499619667    4.68572010124253   -0.02718390126420
C        -6.56414643750524    5.04155511690607    0.58922952921457
C        -7.26661288961404    4.12776992933261    1.37633890746130
C        -6.80006722006918    2.84612135057663    1.55957034976618
S        -3.45135744371518    2.71187296988084   -0.49414556509912
O        -3.44361312753560   -1.12993598543876    0.35313038128125
H        -0.97505629965386   -3.81076602311446    0.26181828642644
H        -1.60558235470689   -5.49954400580450   -1.41635637796277
H        -2.25183452630893   -4.79899843237778   -3.69201992056205
H        -2.25297885330313   -2.40406896298630   -4.28477279334590
H        -1.61113429033405   -0.71941015785671   -2.60958609626396
H        -0.91123494571082   -1.55332592669895    0.95749153037960
H         0.87945369484647   -0.87548116129768   -1.36307162370202
H         0.97906309910079   -0.19249342507151    2.32818002369200
H         2.68117879062789   -1.15855650002310    3.81076108632213
H         4.30292225556123   -2.79914626499983    2.93254144654537
H         4.17716659246827   -3.50663790807564    0.57209440497406
H         2.46588123549558   -2.54467558651491   -0.91297167893738
H         3.94293431805752    1.51798844714450    1.30373710041854
H         6.54106054110749    0.53405405114138    1.39471666995394
H         8.27118572102714   -0.73146432772125    0.16526530172659
H         7.82166608036528   -1.59414700490050   -2.08875707598713
H         5.62916529486447   -1.21461359137531   -3.16697796900257
H        -1.03351020546725    2.06547709001710   -0.61737242174816
H         0.28307095942514    3.15718004035780    1.10383242890868
H        -5.29525306594158    0.34624814827176    1.52964628041900
H        -4.83278670261913    5.38729955576034   -0.63519040502426
H        -6.95019010024088    6.04168846643298    0.46255133962382
H        -8.18821545142108    4.43608835318186    1.84683848615021
H        -7.33984586293876    2.13672282568473    2.16802699575214
