28
 energy: -46.186953173208 gnorm: 0.000317746534 xtb: 6.3.3 (4ae9cef)
F        -5.52850871229174    1.40838305487945   -0.09740845180232
C        -4.27773675783398    0.89338157508000   -0.16923173620386
C        -4.12262277111136   -0.46905688981411   -0.26624177245013
C        -2.81970316080611   -0.95744712013405   -0.33288723809912
C        -1.71718830759364   -0.06610775652869   -0.27594516146999
N        -0.56814411902875   -0.82194459816933   -0.36664638114537
C        -0.93236732220253   -2.14114280726790   -0.51052607599294
C        -2.28222440147859   -2.26819500340021   -0.47916349789616
C         0.75911171825106   -0.40948255488759   -0.29954731109921
N         1.62453541664547   -1.15853723342469   -0.97318419087989
C         2.90267774889059   -0.83536194372115   -0.94537469419669
C         3.41502105836407    0.25431416869230   -0.25090917798480
C         4.87618504841691    0.57130832739426   -0.25022123145621
C         2.50339023275441    1.01454845185338    0.47768587215213
C         1.16225494264406    0.68523154612697    0.46727084072371
C        -1.91144192255706    1.30920716577636   -0.22389686396471
C        -3.20537930801678    1.78324528180533   -0.16368171432942
H        -4.97805319817105   -1.12413906829581   -0.29923925393656
H        -0.16696515566575   -2.88488351202649   -0.61123226251853
H        -2.84280027489461   -3.17833610876459   -0.55108218759191
H         3.55349870589736   -1.48704720253682   -1.51465109888667
H         5.36590158178542    0.13851496073542   -1.11891725892974
H         5.03696380945809    1.64734778815377   -0.24984826880883
H         5.34595134658307    0.16161830162367    0.64465050709143
H         2.84818857799698    1.85571346229924    1.06276514859444
H         0.45291186443596    1.23384917480024    1.06445643130735
H        -1.08705092775251    2.00334946673466   -0.25718627711307
H        -3.40640371271952    2.84167007301671   -0.11936769311321
