72
 energy: -124.419826384147 gnorm: 0.000772634077 xtb: 6.3.3 (4ae9cef)
C        -3.68989134581433   -4.07791188546357   -1.61531166987312
C        -3.26348604814999   -4.91925925664566   -0.62883832612999
C        -2.34287859350234   -4.46232433177617    0.32408172896197
C        -1.86544695731185   -3.18288673698169    0.27564376401771
C        -2.27348041141097   -2.28594158336943   -0.73637480981676
C        -3.20893961796145   -2.75434818093707   -1.70063775383798
C        -3.63148491232377   -1.90185833829972   -2.74096830274094
C        -3.12918624969727   -0.63753419299360   -2.85065034786313
C        -2.18998645624274   -0.17825560358866   -1.92058304251850
C        -1.77944919285496   -0.96019644214531   -0.87034699069403
C        -0.73738058957864   -0.41883989258125    0.07047676652701
C         0.68266599772640   -0.49623423255978   -0.53725881671285
C         1.42844565920547   -1.70360085690106   -0.02810929399365
C         2.18359095887988   -1.60805030965604    1.11165522452378
C         2.83368277782132   -2.72337149327447    1.65444209661435
C         2.69184296253797   -3.94648031024565    1.06690986329088
C         1.91096052455474   -4.09638996381967   -0.09777414555463
C         1.28153140937514   -2.96028381048996   -0.67769353637077
C         0.53006595277657   -3.15428057449860   -1.85776015313461
C         0.37853456777649   -4.39704517791864   -2.40621342708539
C         0.97794496915738   -5.51732772909706   -1.81532657136891
C         1.73722916261291   -5.36433995188658   -0.69120464798062
N         1.28834455057512    0.78367151917260   -0.17799328546695
C         2.39648691930900    1.21089441214276   -0.84239912731364
C         2.75323989704411    2.65199761693287   -0.62436828150102
C         3.70650595324297    3.04883970236863    0.29836229822878
I         4.63742740854173    1.60525793494813    1.52969487210091
C         4.04996070392230    4.38174181500104    0.43943910818091
C         3.43572277100380    5.33196389272241   -0.35711834342022
C         2.49021797527210    4.95041535729179   -1.29427117961033
C         2.15569958379265    3.61555767441834   -1.43090375988696
O         3.02814469989266    0.48455978008216   -1.57408732106951
C         0.38164120308010    1.61133151590855    0.57694996858892
C         0.74748246781090    1.59455853810905    2.07845457727210
O         1.51824103013238    2.63249895384443    2.39493449066830
O         0.38578898180184    0.76163175049585    2.85794763149321
N        -0.90652439903940    1.00370864762700    0.36328946754508
C        -2.06117685920567    1.47280264846693    0.91461701161793
C        -1.94519306733082    2.85402764778341    1.49840180266319
C        -1.97451733413796    2.96880191253438    2.88441638479621
C        -1.88725469876936    4.20922689444846    3.49034839333399
C        -1.78675519349912    5.35171031046622    2.71439848005343
C        -1.78136427097261    5.25559427524782    1.33388310136603
C        -1.86167405349259    4.00989828748356    0.73739680466509
I        -1.85815901908606    3.89723881116921   -1.37442062787209
O        -3.08930330046374    0.84027861400272    0.94716246577744
H        -4.40175021931142   -4.41407186034760   -2.35590853796765
H        -3.63046074149304   -5.93352840890085   -0.57389273758995
H        -2.00851444781634   -5.13167029033204    1.10289334191508
H        -1.15421948375428   -2.87189319707735    1.02447089740863
H        -4.35269986397854   -2.27310364632861   -3.45482914174965
H        -3.44205653449640    0.01585287574041   -3.65117861853753
H        -1.78868160179119    0.81774238694152   -2.03600110893943
H        -0.75786771544262   -0.95570464483272    1.02514223891780
H         0.63669238292170   -0.52487918005021   -1.63201274315875
H         2.28527372347669   -0.65896526514172    1.61435508979102
H         3.43280473922193   -2.60103339602325    2.54404203336690
H         3.17152604256140   -4.81943800088704    1.48548113091795
H         0.05897417781834   -2.31645682587900   -2.34584895299575
H        -0.20950823155360   -4.51965164737000   -3.30362402725919
H         0.84152936284627   -6.49268967746815   -2.25851235812240
H         2.21844731472508   -6.21611264210110   -0.23185701943902
H         4.79432862859580    4.67581766215205    1.16327326997628
H         3.70421342931631    6.37156903410627   -0.24687204056986
H         2.01487291681442    5.68796914382153   -1.92200966647618
H         1.43001440455473    3.30880920300137   -2.17023503695908
H         0.42380002165008    2.65421475136392    0.23641145600293
H         1.79636864630971    2.59348523729354    3.32651925012530
H        -2.06436630773789    2.06994035752745    3.47582732169038
H        -1.90473670632195    4.28353051859856    4.56670960504988
H        -1.72193777839179    6.32352995840704    3.17925083439142
H        -1.71991367572299    6.14529089625444    0.72610897969257
