72
 energy: -111.277689997742 gnorm: 0.000265801568 xtb: 6.3.3 (4ae9cef)
C         2.06643525686405    3.61459264416733   -1.33688419243749
C         3.06278011129062    4.02902251368932   -2.20127838561039
C         4.08777640025859    3.16409114619920   -2.54669639165936
C         4.11807148860336    1.88955582031909   -2.01038002416202
C         3.12065601504860    1.47283044583899   -1.14583324877929
C         2.07726749045353    2.32559400815612   -0.81443056918287
C         0.97505995236152    1.90751225640017    0.13819271832758
C        -0.44148913369481    2.13549304364821   -0.41971803436736
C        -1.43627243469515    2.61672319566445    0.61300510011381
C        -1.42780675949845    2.11717341920080    1.91000582001538
C        -2.37899428743081    2.53231319125971    2.82518322171616
C        -3.35204716673824    3.44334930771127    2.45283632563542
C        -3.36384560681935    3.94670683592425    1.16345886588297
C        -2.40971278880488    3.53782498438919    0.24899643034518
N        -0.82321216792448    0.80000035890536   -0.90395949001240
C        -2.00811170480119    0.59364862638483   -1.55414615960711
C        -2.38052736233957   -0.84309310657588   -1.74277929275029
C        -3.38789116768010   -1.39919320527961   -0.95175542771874
C        -4.10198418215286   -0.59783807121791    0.10063908830617
C        -3.41920989843459   -0.73802255148809    1.46107160387095
C        -3.71207965054371   -2.73760641860274   -1.13775599441125
C        -3.07729645429931   -3.50335204517663   -2.09784150526285
C        -2.11481230210001   -2.93029403609317   -2.91050977478804
C        -1.77013405914944   -1.60280242280711   -2.73468228805951
O        -2.67896629031107    1.52548408721698   -1.94345777924091
C         0.10719009640317   -0.21623953853826   -0.47185054489498
C         0.94711540379326   -0.76645401487021   -1.65985479500638
O         1.02969739728079    0.03164761547760   -2.72117434307192
O         1.50166400919036   -1.82347952227543   -1.60026787864587
N         0.97731452366988    0.48366508701154    0.44268898523785
C         1.64736449413586   -0.00228374747008    1.52931157357442
C         1.50776536740670   -1.46592769799990    1.78698321620836
C         0.27436093281857   -1.95036083521035    2.21452071315049
C         0.10863563328197   -3.28850394070406    2.51302263578065
C         1.18480350687586   -4.15190882123895    2.39486133581992
C         2.41703320588309   -3.66628993089334    2.00353453335423
C         2.60565619034977   -2.32189683561644    1.70066943231386
C         3.96715074602994   -1.84312696079121    1.28426073011387
C         4.35227756566338   -2.37990110487763   -0.09576492364883
O         2.29302943797957    0.74484845684352    2.23534343509218
H         1.28173556279122    4.30183882261206   -1.05412408565002
H         3.04081954182177    5.03153267422679   -2.60159060625879
H         4.86464962938504    3.48757317925691   -3.22273236112943
H         4.91976544485505    1.21228663525913   -2.26187956164402
H         3.16610774942547    0.47894829362059   -0.72756993739103
H         1.12288277543815    2.44957952050966    1.08016974027404
H        -0.44790815627701    2.83098724499552   -1.26623263127239
H        -0.67239171928440    1.41041583891503    2.22159017882808
H        -2.35862384266913    2.13895899092575    3.83072932774539
H        -4.09758540352665    3.76093151989542    3.16653249904640
H        -4.11939738984814    4.65833017909615    0.86631489946626
H        -2.43040764023421    3.92111165603635   -0.75955319439496
H        -4.13104247886555    0.45521192536175   -0.18196332477206
H        -5.13038062148386   -0.95592455514256    0.18017576755685
H        -3.99123535661036   -0.21840233252904    2.22587575240528
H        -3.33168578291463   -1.78661631893221    1.73902943967183
H        -2.42549199436332   -0.29877784950433    1.42891930783492
H        -4.48394373837384   -3.17813424783560   -0.52304405089839
H        -3.34521666446295   -4.54156571093317   -2.22430188242815
H        -1.63204115678310   -3.51106997018143   -3.68086573871079
H        -1.04219859890343   -1.15395155937913   -3.39306993731545
H        -0.37811629788502   -1.07642136184174    0.00705158643750
H         0.51946069858946    0.85072304368415   -2.60293645848837
H        -0.55503673970293   -1.26847829146751    2.34292639122207
H        -0.85257258544240   -3.65271038683633    2.84351305431732
H         1.06480641147115   -5.20028733618004    2.62416276746135
H         3.26014841766950   -4.33843507709964    1.94042126136220
H         4.69958652055302   -2.18872997140183    2.01880550353080
H         3.99724281143091   -0.75348023443568    1.28052753379534
H         3.58832015171627   -2.13664842693556   -0.82974890208393
H         5.29954228945021   -1.95043948036780   -0.41386595111623
H         4.45549535481860   -3.46185765008163   -0.07082810894027
