60
 energy: -100.833101140100 gnorm: 0.000522064330 xtb: 6.3.3 (4ae9cef)
C        -2.74621224605059   -3.22330353261514   -0.63951743638043
C        -3.87421568542504   -3.41115401890077   -1.41838881246636
C        -4.26959175219718   -2.43424663414513   -2.31523185766773
C        -3.53391039304104   -1.26690278479827   -2.43015596275074
C        -2.40627515517229   -1.07947884846363   -1.65297528550060
C        -2.00355429365799   -2.05774299919990   -0.75206823317639
C        -0.76439579853898   -1.85154056803108    0.07998262068835
C         0.52573764844062   -1.79655563214118   -0.78520289522509
C         1.63401677796016   -2.67901041431697   -0.26250138738241
C         2.92211408472977   -2.19366024397709   -0.08329592842454
C         3.92062223536503   -3.01910185987293    0.40537918517840
C         3.64618152722759   -4.34082100049495    0.70820677454043
C         2.37050993571185   -4.83948221806018    0.50259568923475
C         1.37180424315247   -4.01522873208938    0.01767714841287
N         0.88490294746143   -0.38552653318931   -0.78346124139341
C         0.98882070156528    0.29646334864238   -1.97055924819628
C         1.04979072659325    1.77166779163841   -1.85765415756346
C         0.33651874786145    2.57431333189050   -2.69829308693953
S         0.55314721935526    4.23765692435439   -2.34596416377780
C         1.65804635142838    3.86404786125785   -1.05612564494961
C         2.30603353054154    4.94787275621497   -0.27295451199499
C         1.81522157724138    2.52274490116649   -0.92063841373645
O         1.02790853760978   -0.28783962731724   -3.03202165891195
C         0.42419733165167    0.18048991869469    0.45599586608935
C         1.47995635047814   -0.02887931116293    1.56400313224017
O         1.16383660424820   -1.01723650612270    2.38797458616523
O         2.46884221070274    0.64337892498637    1.66843831440076
N        -0.79084746873278   -0.54334052972362    0.72469254118884
C        -1.74942232608880   -0.19078580019691    1.62059514040993
C        -1.60201570112553    1.21067700128150    2.10914718836543
C        -1.39353442830344    1.54776433426677    3.40770472620803
S        -1.23210713544910    3.24659681323166    3.61825471921837
C        -1.47309593652310    3.52423023630926    1.92101752639394
C        -1.46514221051241    4.90357912998762    1.36771589495128
C        -1.65504536037722    2.35227274241086    1.25994381109758
O        -2.63845652980311   -0.93963649425640    1.95851192206015
H        -2.44670179620979   -3.98142105495632    0.06915853463703
H        -4.44838130537121   -4.32055003612160   -1.32096814882475
H        -5.15144947535784   -2.57934215124253   -2.92136159855935
H        -3.83960953067729   -0.50041171014440   -3.12696898020406
H        -1.83466317559912   -0.16662336451370   -1.74793332264500
H        -0.69619802158935   -2.63008438393721    0.84763923026647
H         0.31037137119458   -2.07795975817215   -1.82407543507885
H         3.15218999869540   -1.16909003484785   -0.33424246627799
H         4.91632755787925   -2.62511465161236    0.54532824838531
H         4.42492022873295   -4.98325371756447    1.09115229123725
H         2.15338551876601   -5.87517352270108    0.71781653524000
H         0.38342158815690   -4.41415045962797   -0.15707344111710
H        -0.31532114071510    2.27144521086624   -3.49333789946066
H         2.72379735725741    4.54041183511788    0.64449563430364
H         3.11242583421626    5.40433232141606   -0.84790503711905
H         1.58912529867898    5.72888234529837   -0.02693979391516
H         2.46808760996306    2.07823300586966   -0.19100307668210
H         0.26106423027917    1.25963612391633    0.36473902691432
H         1.84865228013559   -1.14419482268039    3.06494834982928
H        -1.31399713475056    0.89489053570772    4.25344444926386
H        -0.57651599333180    5.44052697781858    1.69480065146247
H        -1.48191370638276    4.87045976071340    0.28086956652097
H        -2.33595112983700    5.46008363485345    1.71341956189858
H        -1.85345133246240    2.29618718928194    0.20316925950313
