68
 energy: -121.540747100135 gnorm: 0.000296862890 xtb: 6.3.3 (4ae9cef)
C        -1.57067480792768    0.64600280658347   -3.24863483020738
O        -2.65957521289514   -0.00040145985634   -2.76348499539143
C        -3.86741508304747    0.07731992346899   -3.48193607066640
C        -1.48418476950958    1.18046973399209   -4.53073656562369
C        -0.31492212552274    1.77981884832569   -4.96438271335535
C         0.78715898614455    1.85031942145737   -4.13381801882117
C         0.70219487638335    1.33493389344572   -2.85221942177431
C        -0.46231104533243    0.74357517186884   -2.39261715214184
C        -0.57935513907435    0.25820449459514   -0.96846884472930
C         0.54402239878196   -0.71854142221515   -0.55100725914344
C        -0.01348822224356   -2.02809843147292   -0.05141361392091
C         0.07801248018083   -3.15447203440715   -0.85205889736068
C        -0.42503003628751   -4.37487179475682   -0.43780628690272
C        -1.03644564549103   -4.47023493848147    0.79706472926080
C        -1.14723675405220   -3.35664700421908    1.61082907847396
C        -0.64144482768142   -2.12814460798163    1.20082275983377
O        -0.69587822573474   -0.99531692652281    1.95519523416623
C        -1.13186737368209   -1.09697832552468    3.29147160248130
N         1.30014148800920    0.00862067964741    0.45794385591139
C         2.11240732319782   -0.53281557762252    1.40303860590193
C         2.56193678727798   -1.93062672528096    1.12346430696274
C         3.24371493060360   -2.24452073178203   -0.04630566590948
C         3.65872763667521   -3.54302765543518   -0.28260748213664
C         3.39132642555677   -4.54341549344110    0.63591628740004
C         2.73581007921782   -4.20714741537307    1.80612142078015
F         2.47896183104037   -5.17188785595134    2.71233060635902
C         2.33400907515615   -2.91390595531097    2.07629937272557
O         2.46476353710221    0.09213165956845    2.38236240003618
C         0.79345454263270    1.34218187034047    0.65519885691585
C         1.75062327260973    2.41838467610616    0.10459424197739
O         2.98459520303476    1.95435443793756   -0.06886967217713
O         1.42632956714760    3.55108445049654   -0.11611242926245
N        -0.47630201633095    1.35474093389981   -0.01197997546178
C        -1.44721567048374    2.29897624277919    0.06827570607020
C        -1.29888091460480    3.28843414344648    1.18078652005280
C        -1.37632406633046    2.84768219749749    2.49587864417997
C        -1.31304267395089    3.77948681255884    3.51369359637289
F        -1.39134854857498    3.34913572452704    4.79242064396926
C        -1.17260098048830    5.13200663629246    3.26342340208095
C        -1.11176533086407    5.55697463653960    1.94705184456653
C        -1.18553261419036    4.64481011847387    0.90855824831044
O        -2.40165149934594    2.30506869761326   -0.68062211302095
H        -4.15983707656761    1.11676559707919   -3.65291479576979
H        -3.80370024770293   -0.45305118778163   -4.43829576504204
H        -4.61264098434254   -0.40676708303596   -2.85294431008844
H        -2.32840364260711    1.13501583161818   -5.20004994372547
H        -0.26913973510280    2.19040364531026   -5.96207472921792
H         1.70168663319206    2.31040381138733   -4.47496950925033
H         1.55819635095158    1.39555856231617   -2.19707865663118
H        -1.56632615857005   -0.19892685758542   -0.84891767434934
H         1.18220438167503   -0.92491201373022   -1.41891611763518
H         0.55984804671788   -3.07098419081498   -1.81506830876882
H        -0.33694514142030   -5.24157320042307   -1.07363928835340
H        -1.43230423955041   -5.41452464742703    1.13827353144141
H        -1.63572815895209   -3.45515149264761    2.56675763811596
H        -0.59174378254452   -1.87891405611485    3.83250197255665
H        -2.20801017143753   -1.28828279375961    3.34987126475938
H        -0.90844613081151   -0.13724470126531    3.75518162800193
H         3.46208586397741   -1.46662816454357   -0.76187572834149
H         4.19065190149653   -3.78208456239014   -1.19088175681372
H         3.69097660713936   -5.56472074269571    0.46330577780144
H         1.84571936640410   -2.67724561197383    3.00788178978146
H         0.71129616700554    1.54891053422178    1.73533286177887
H         3.58727440714420    2.66825327941690   -0.33614446076810
H        -1.50765562432229    1.80185248313308    2.72527690443447
H        -1.12085258743442    5.82695639148722    4.08654480282054
H        -1.01039505693482    6.60957937817582    1.73210220194159
H        -1.14150884449071    4.97364593620649   -0.11692128546351
