60
 energy: -107.069322491996 gnorm: 0.000543619514 xtb: 6.3.3 (4ae9cef)
C         1.67728023781241    3.60284071281195   -0.69034767939384
C         2.67201169467882    4.15276554192004   -1.47700463316439
C         2.83085197112460    3.73444846865086   -2.78808410892455
C         1.99030744744919    2.76444772561275   -3.30409296108086
C         0.99433323377137    2.20897261730339   -2.51710136477527
C         0.82734232219495    2.62741714571437   -1.20334952530765
C        -0.18273168766895    2.01290722383215   -0.25999208724553
C        -1.34047599982176    1.24306774081185   -0.91697335562662
C        -2.62788062485039    1.36739114292091   -0.13827366969567
C        -3.72228721026940    2.01636844717211   -0.69091457812161
C        -4.90253790410781    2.12915493126209    0.02275055601359
C        -5.00015752316153    1.59315866300767    1.29495300690707
C        -3.91209382720044    0.94319059068106    1.85228810927477
C        -2.73335610760624    0.83056458472641    1.13861169815713
N        -0.87195925862622   -0.14336831651870   -0.90386638146055
C        -1.47897628524541   -1.09384870685324   -1.66543843579462
C        -0.99186833191575   -2.48901645904194   -1.43678959093237
C        -0.48397033968527   -3.22994672713257   -2.49582411597265
C        -0.06016409622373   -4.53083633451564   -2.29544675860296
C        -0.17370269191239   -5.08079471807214   -1.03135457824582
F         0.24133476530887   -6.34695454928299   -0.82711385943728
C        -0.70656428482167   -4.37395696897326    0.03202548826170
C        -1.11573807002752   -3.07005090763594   -0.17881868166801
O        -2.38162195795960   -0.82040940533054   -2.42525758199974
C         0.37681228714936   -0.26535721792606   -0.19274901953804
C         1.55964699328695   -0.45352549757661   -1.17221613699302
O         2.70575709140576   -0.06559566986557   -0.62392700115089
O         1.46066910783501   -0.93061132761925   -2.26543494865220
N         0.47089713274168    0.96898314072082    0.52920979664986
C         1.00639092378694    1.18397052657410    1.75611552691617
C         1.55100953064135   -0.04574669989213    2.41972239902120
C         0.69372643184477   -0.96370737730339    3.01691726112980
C         1.19970109737522   -2.08520883478726    3.64876189014297
C         2.57058382177261   -2.26978854493521    3.67429396172091
F         3.06921435510183   -3.36519074201650    4.27803829219233
C         3.44322788887567   -1.36218447887182    3.10118954007992
C         2.92462915583393   -0.24243401849181    2.47633561639000
O         1.03261328398137    2.28144006051358    2.26704540853096
H         1.55800878701955    3.91789619883582    0.33540171908878
H         3.32395887577641    4.90923040783092   -1.06652521987064
H         3.60655196517566    4.16312250261443   -3.40499679482409
H         2.10776505081429    2.43095567456597   -4.32435723898148
H         0.36009429873986    1.44823663211653   -2.94586110199829
H        -0.54633382917756    2.77663709448982    0.43434829630466
H        -1.52082145299188    1.56503315715466   -1.94634060916455
H        -3.65173754918686    2.42709533596249   -1.68689117262340
H        -5.74983852658988    2.63236445212453   -0.41828641717693
H        -5.92200536149162    1.67799833573403    1.85059497384320
H        -3.98260093198308    0.52274149898607    2.84475247957861
H        -1.88644892883511    0.32367247140935    1.57761345475616
H        -0.41035508701452   -2.77513329848291   -3.47027915501200
H         0.34885839572349   -5.11953923043587   -3.10092893564311
H        -0.79884434063188   -4.84541611606829    0.99760533229498
H        -1.56071040296862   -2.51105963230607    0.63212721712983
H         0.39945749960343   -1.13282512562153    0.48169006751025
H         3.44568073413245   -0.18994239836876   -1.24154098723492
H        -0.37340133802754   -0.79549188917913    3.00565466972758
H         0.55139295125642   -2.80641130794677    4.12020364904340
H         4.50616446196129   -1.53567858854048    3.15322435664273
H         3.58290815582234    0.48395606352590    2.02694291900894
