84
 energy: -130.485166104649 gnorm: 0.000502602101 xtb: 6.3.3 (4ae9cef)
C         4.41073910299489    2.73502932065501   -2.26971145584220
C         4.40291124908525    1.47271385480183   -2.79047482048588
C         3.40558979630253    0.56867565469690   -2.40101635870600
C         2.44479578947612    0.93272953084808   -1.49819243258883
C         2.42860863085720    2.22464660376824   -0.92729900107070
C         3.43433264221262    3.14423499644618   -1.33724352221210
C         3.44201888835342    4.45397161487692   -0.81616246123913
C         2.49556978259085    4.84702375909302    0.08445356069201
C         1.51365669358617    3.94295616068309    0.50475626943587
C         1.46709817194026    2.65726954083661    0.02643827077256
C         0.33382114993884    1.78550343654717    0.49334020167949
C        -0.71667812898909    1.51225306640594   -0.59906179862679
C        -1.79014912444270    2.57034236486854   -0.58693462282024
C        -2.87975907951324    2.42015373017567    0.23263043632094
C        -3.88109163757812    3.39592800605332    0.30443914865394
C        -3.77306142439600    4.53903521960265   -0.43307545845171
C        -2.65727972225623    4.74925917312923   -1.26877066612582
C        -1.64416372009877    3.75429490406529   -1.35890800278266
C        -0.54120407406209    4.01026018753351   -2.20351143359990
C        -0.44138247048374    5.18002541889894   -2.90360967181564
C        -1.44075576233897    6.15849104835026   -2.80928756359459
C        -2.52728297966778    5.94171499633441   -2.01163897435016
N        -1.21962282524751    0.18888931784211   -0.24779139787779
C        -2.11839445808170   -0.41988016892240   -1.07819343415168
C        -2.52708695442066   -1.79222925055365   -0.65846661088374
C        -2.34287536390552   -2.85057808692959   -1.53739766926988
C        -2.71541936351849   -4.13739617069839   -1.17378038831687
C        -2.50833751191204   -5.28110097641376   -2.11934547308698
C        -3.29946245195261   -4.33856175402261    0.06984945609012
C        -3.52433848527232   -3.28589953678402    0.94697653283785
C        -4.19713391201883   -3.51570656276318    2.26585265188567
C        -3.12894127518997   -2.00930252002046    0.57402650594095
O        -2.56712855955186    0.14233643889779   -2.05226441776670
C        -0.35922342940607   -0.49222050819770    0.69723181045046
C         0.14372532650117   -1.82111401895427    0.09826368686601
O        -0.17015197573638   -2.85790602802280    0.86872740265566
O         0.71332900654547   -1.91416089065708   -0.95246910663469
N         0.71450178135417    0.44786195601191    0.93174137371746
C         1.82122191906818    0.23385711220217    1.69552389129021
C         2.05597186241543   -1.20495184051990    2.02916133544234
C         1.46496723458785   -1.78844875369375    3.14027135534686
C         1.69108725768478   -3.12693501656270    3.42972780631294
C         1.02364119225612   -3.76758545553594    4.60781634253980
C         2.51813834423316   -3.86302771124276    2.59079267838553
C         3.13637891001184   -3.28716371166546    1.48944539082075
C         4.03630199554196   -4.08329565207007    0.59468689239307
C         2.90382216679734   -1.94488959245927    1.21766449907912
O         2.56123233977046    1.13108278633773    2.03084829929357
H         5.16960782082987    3.44654499577784   -2.56366817439901
H         5.15578776224921    1.16626366148078   -3.50211435119151
H         3.39262637737049   -0.42697366931357   -2.81994311862038
H         1.69692131014551    0.20630412864535   -1.22845942908489
H         4.21235615000699    5.13739171400584   -1.14377106037284
H         2.49648854219344    5.84996201360330    0.48426878112027
H         0.77700497417322    4.27145188698510    1.22386981138310
H        -0.16261682571044    2.29491624412724    1.33466550787886
H        -0.25730921286510    1.45591281344286   -1.59153337638833
H        -2.97984606785899    1.52579580833867    0.83042827944003
H        -4.73255667196739    3.23422388108237    0.94897959019664
H        -4.53664051054477    5.30204881558439   -0.38469340512732
H         0.24652299566664    3.28153848357147   -2.30332104298752
H         0.41519522150359    5.35404275176564   -3.53806331345300
H        -1.34587218788836    7.07570124854272   -3.37173410888945
H        -3.30876558849033    6.68423985345668   -1.93225248912594
H        -1.88965577704248   -2.66273151814600   -2.49914787615272
H        -3.34962925847621   -5.34560841712874   -2.80960799571361
H        -2.43868916658082   -6.22486944935336   -1.58312276010087
H        -1.60538030235793   -5.13678666425688   -2.70821893530639
H        -3.59486526456629   -5.33783983114828    0.35870269551310
H        -4.10072281845375   -4.55287736795783    2.57710332777859
H        -5.25929007814251   -3.28325843544294    2.18507169692512
H        -3.77200659760380   -2.87438849175256    3.03476195082382
H        -3.30628707833836   -1.17807605979716    1.24158700991323
H        -0.89466115615685   -0.73244259585948    1.63310530471519
H         0.14321930156231   -3.69021600857045    0.47896032723837
H         0.82730498625711   -1.19826037088383    3.78260813596336
H         1.52465481074176   -4.69126245120437    4.88595169324439
H         1.02367151210324   -3.09495066761104    5.46261009320925
H        -0.01322206663537   -4.00023681052506    4.36310509674716
H         2.69174091401290   -4.90828388545044    2.80751243654670
H         5.05479466707242   -3.70048041400206    0.65216961080668
H         3.70984465309493   -3.99857294431430   -0.44120686054083
H         4.04468985538487   -5.13287135172951    0.87874866523248
H         3.37305123133841   -1.47353688904658    0.36659522621161
