84
 energy: -136.996693133370 gnorm: 0.000353770509 xtb: 6.3.3 (4ae9cef)
C         1.50860024355198    2.00834773347784   -1.51657587063750
C         2.27520940754485    2.90965667003034   -2.19447775728996
C         2.71695567765638    4.09558290390629   -1.57100514643765
C         3.51032137707564    5.04793659940448   -2.24213263515929
C         3.92316696916651    6.18529167635052   -1.60607880699563
C         3.56065008893942    6.42178118726638   -0.27096086471439
C         2.79228436774203    5.51708261593528    0.40660965553269
C         2.35200136417973    4.33320833438780   -0.22061946695496
C         1.56637794176482    3.37747676685595    0.45441039537204
C         1.14997474125812    2.23499136370616   -0.17309187780356
C         0.28631013135639    1.22999659263010    0.53787258170332
C        -1.14222299085948    1.14568845782626   -0.07413066637300
C        -2.20670766071397    1.60574814354327    0.89360259557472
C        -2.14486202452981    2.88554926673443    1.38313834157480
C        -3.10989726438426    3.36966531868016    2.28623591658863
C        -3.06317259542371    4.68317081454569    2.79994859032503
C        -4.01791604423150    5.12496842492646    3.67147208736751
C        -5.06275218882168    4.27558321702962    4.07072587697576
C        -5.13523760325345    2.99811978830893    3.59147109389210
C        -4.16602733674222    2.51164315081818    2.68954561666318
C        -4.21241818212074    1.20525840337649    2.16379077437361
C        -3.26046776599971    0.76442437207632    1.28865014138340
N        -1.27600948729812   -0.24352698379299   -0.47972504686948
C        -1.99507525233915   -0.61217262632001   -1.57711888928787
C        -1.86265879006089   -2.06598832862476   -1.91683826103406
C        -0.82842208313610   -2.48008015292219   -2.79420611730934
C         0.06063010784255   -1.56350313939082   -3.39398990181040
C         1.04547916395239   -1.99628241733029   -4.23657986839824
C         1.19083890135458   -3.36451156082128   -4.51293217489241
C         0.34459614013203   -4.27628401667637   -3.94736418625078
C        -0.68728184818325   -3.86309423028032   -3.07921756098892
C        -1.58806816555005   -4.77884166091325   -2.49641462143266
C        -2.59304971374900   -4.34650475128188   -1.67823935923882
C        -2.73070157652728   -2.98209745634682   -1.38358098143050
O        -2.68340496686563    0.17441931861059   -2.18722622465612
C        -0.28938875314257   -1.04356035606115    0.19914084888947
C        -0.85544181273519   -1.51234029118186    1.55656767890459
O        -1.37843456226178   -2.73249186708081    1.45600954562335
O        -0.85165844290597   -0.86545554220712    2.56388707611460
N         0.80133890438435   -0.12741323527150    0.38946545413820
C         2.11801240570742   -0.46139373223623    0.45943994747149
C         2.35225299696985   -1.91305539773813    0.15546476671108
C         2.72042517281022   -2.27795732229717   -1.11393387549716
C         2.86613714172101   -3.63175932351505   -1.45040652712760
C         2.62558512309964   -4.60287171838140   -0.52029660937242
C         2.27068163454261   -4.26390329432150    0.80246052637416
C         2.15094707996834   -2.89446409275163    1.15665245670214
C         1.84163419458189   -2.55413227916259    2.49056728854323
C         1.62659452348624   -3.52971430997601    3.42392680888586
C         1.71437243006789   -4.88479475147363    3.06859418237160
C         2.03677802400850   -5.24355527677961    1.78985566952379
O         2.99403454260410    0.33894954553003    0.69348684741319
H         1.18024254325435    1.09889285905172   -2.00014943758478
H         2.55700049420790    2.72709415568716   -3.22180685946927
H         3.78789656710009    4.86128133103052   -3.26993336104826
H         4.53268068181564    6.91029402682579   -2.12553714050508
H         3.89635646483973    7.32567396098768    0.21617266945862
H         2.51316360033561    5.69373013098811    1.43560913523749
H         1.30689638312350    3.55555321178333    1.48868018757568
H         0.21954445199805    1.47862254206058    1.60430106074010
H        -1.21430531841173    1.76295122282184   -0.97977299936392
H        -1.34742462197077    3.54494608117860    1.06985073878600
H        -2.25790495780903    5.33287042695147    2.48787044723023
H        -3.97788288187334    6.13201860039122    4.06027804371901
H        -5.80890185784875    4.64320832880632    4.75994940108853
H        -5.93803001002827    2.34117104817073    3.89498638595997
H        -5.02170376379873    0.55405618481475    2.46235942307751
H        -3.32120634020883   -0.23513147184333    0.88375655882462
H        -0.06884848372824   -0.50899867463394   -3.19707261590672
H         1.71553597468167   -1.28746768811146   -4.70054700273062
H         1.97280073874991   -3.68851918711063   -5.18418969814110
H         0.44681021397190   -5.33017353895295   -4.16325012959895
H        -1.47288924903174   -5.83008751916814   -2.71782447770058
H        -3.28808829257573   -5.05054479884660   -1.24604130136535
H        -3.52746739915149   -2.65459776330925   -0.73232255404926
H        -0.00791629112769   -1.92632105952072   -0.38405580718531
H        -1.74805476622201   -3.02308221921030    2.30683565041226
H         2.88882268809617   -1.51859712920164   -1.86296886326016
H         3.15447146948541   -3.89515534118986   -2.45641471890456
H         2.71385608669458   -5.64765652654157   -0.78089083302973
H         1.79605156701266   -1.51117729089163    2.76732827620552
H         1.39292172099592   -3.26101499997583    4.44344850131487
H         1.53864690663012   -5.64149293059184    3.81918065520257
H         2.12601299515324   -6.28513752322915    1.51632019805013
