78
 energy: -149.499465057589 gnorm: 0.000378820466 xtb: 6.3.3 (4ae9cef)
C         1.61086170626718    2.95821884462357    2.32042103290340
C         2.64757749562530    3.84120588505126    2.42026408777679
C         3.69101193062668    3.84289551016559    1.47226614109490
C         4.78206447513352    4.73265231570437    1.55462855700455
C         5.78030265805666    4.70068674776502    0.62183371803706
C         5.73270055548907    3.77955135979738   -0.43684530135152
C         4.68666138234077    2.90756349928260   -0.54716907284931
C         3.64112217963265    2.91402165474202    0.40003284635243
C         2.55009394421665    2.02870992602849    0.31574099747461
C         1.55665607147328    2.03528180521429    1.26061164791009
C         0.38503016584619    1.10127095812495    1.15276614683293
C        -0.52585417294590    1.44220688226725   -0.05993692575245
C        -1.70729100943440    2.27931979514603    0.35452706486341
C        -2.93843497433183    1.74035081764128    0.61162094211154
C        -4.01374959232530    2.55572105436128    1.02082823045038
C        -5.29314040913979    2.02242689987351    1.28071273219109
C        -6.31971780279922    2.83465360764127    1.67387203041812
C        -6.11408227338490    4.21496503638900    1.82601488719767
C        -4.88435762307462    4.76091583668946    1.58449611094717
C        -3.80502430636584    3.95023749461723    1.17758226771256
C        -2.52202666640416    4.47643335377723    0.91676629063430
C        -1.50207787637235    3.66487811493869    0.51345288394757
N        -0.87146558161938    0.13844433601172   -0.61362846624427
C        -1.41417880225911    0.00140182205903   -1.85371821455654
C        -1.57434331833929   -1.43768674739663   -2.25979398119850
C        -2.77135058101673   -2.09734140720048   -2.01702680962513
C        -2.89370423980747   -3.44208293014352   -2.31937866605869
C        -1.81592238180554   -4.12128708738110   -2.87012539328873
C        -1.89595392282297   -5.60164812856320   -3.11986344230506
F        -1.29858271450914   -5.97154912762673   -4.25975570344841
F        -3.15396865678692   -6.06023259541483   -3.17750065735181
F        -1.29046506363621   -6.29355035836166   -2.13105197943084
C        -0.62649315676663   -3.46046102120906   -3.15133774148213
C        -0.51191491179042   -2.11623290283928   -2.84967627192485
O        -1.72876163637627    0.94550991029480   -2.53738097790788
C        -0.30918369012188   -0.91651049026511    0.18433667435664
C        -1.35238851071336   -1.51733766041409    1.15517382958923
O        -0.77199322481635   -2.06243750232992    2.21647933445966
O        -2.53232933091672   -1.52500044501114    0.95080380333366
N         0.77350469951773   -0.27770076112491    0.88073437206099
C         1.87957605848511   -0.90198743123283    1.37018222304521
C         2.11895618869001   -2.23377412309627    0.71228063647029
C         1.97625283106955   -3.42563546166628    1.40715689414964
C         2.15960642394044   -4.63481052165898    0.75702305013685
C         2.50084506156180   -4.64324759208273   -0.58721525708545
C         2.68098334366014   -5.93211739033532   -1.34051992135258
F         1.97311192599404   -5.93383939241098   -2.48545081584208
F         2.30525904819314   -7.01128873245285   -0.64910802584181
F         3.96301315700389   -6.13226064829178   -1.69949084531193
C         2.69321627459134   -3.45305509103917   -1.27924937350028
C         2.49877034574939   -2.25156333027485   -0.62774562427702
O         2.61989133778960   -0.41501793558560    2.18944759824019
H         0.81984204286451    2.95890419194145    3.05609069228201
H         2.68563904654882    4.54798239010681    3.23640023624873
H         4.81448895920815    5.43923132668427    2.37160314644367
H         6.61468595689329    5.38286823683826    0.69194077914917
H         6.53282374347165    3.76588917459752   -1.16234267358640
H         4.64781274241378    2.19669048478315   -1.36041030258241
H         2.51676929099129    1.32794427122981   -0.50781485380442
H        -0.21045441885132    1.14205875117869    2.07639926422015
H         0.04337613671971    1.99535685504288   -0.81861781565987
H        -3.11335419350228    0.68101958872772    0.49697548560716
H        -5.44395110271056    0.95915748940262    1.16105069746751
H        -7.29826391061760    2.42122860404639    1.86956455050999
H        -6.93759665376462    4.84170287518357    2.13541826271534
H        -4.72104761845419    5.82297599462374    1.69969900771131
H        -2.36115215107678    5.53818278869351    1.03552271466573
H        -0.52275423419545    4.07420043161372    0.31086795358676
H        -3.59831887747517   -1.56289101899173   -1.57844571860958
H        -3.81780808207561   -3.96328034717054   -2.12342051081137
H         0.19508961737898   -4.00166518082543   -3.59492667052420
H         0.40574100098741   -1.59132874996328   -3.07004724538641
H         0.03967633347382   -1.75548817424123   -0.43335906374742
H        -1.43028484508020   -2.45384415829365    2.81564494972293
H         1.70987269112141   -3.40269614595175    2.45171669536650
H         2.03229513179171   -5.56620893336366    1.28636475298793
H         2.98510600193527   -3.47647031703273   -2.31818539078457
H         2.64345956166564   -1.32138708160312   -1.15677350695563
