27
 energy: -38.781366148557 gnorm: 0.000363191190 xtb: 6.3.3 (4ae9cef)
C        -3.30989030809116   -2.52873306521609   -0.40244512744111
O        -2.82696600699816   -1.21923404786181   -0.55599422054091
C        -1.56510338043522   -0.94195184737136   -0.11780166607825
C        -0.70848924084636   -1.84801788456797    0.47953486962196
C         0.56055306105365   -1.45897164300293    0.89003618545439
C         0.98941089996965   -0.15930221529889    0.71429189931535
C         2.37394416839881    0.27847141135134    1.11711275795007
C         3.24311621615273    0.38280808900650   -0.10065888926184
C         3.81445243728595    1.49596342329626   -0.51858579104488
C         0.13248710361170    0.75855650709129    0.10932021608002
C        -1.13308970982469    0.39039489997398   -0.30624601117601
O        -2.03587786460640    1.22083930464255   -0.90127133947567
C        -1.67092103404485    2.56076081326948   -1.10915764602161
H        -2.69601932017633   -3.25345348022925   -0.94852766846126
H        -3.36089612144828   -2.82040443108330    0.65246055124527
H        -4.31495319005563   -2.52247746453305   -0.82156644478454
H        -1.01530367718377   -2.87004074905301    0.63509791688280
H         1.20910575432116   -2.18716877754555    1.35441205947931
H         2.33171186059439    1.24511345433993    1.62286516143639
H         2.80177041043238   -0.45641106067106    1.80349219987215
H         3.36225391069866   -0.53855062560728   -0.65581076717151
H         4.42224086347589    1.52910997719351   -1.40705183177617
H         3.70534844914293    2.42544037548146    0.01724853939652
H         0.48210578792587    1.76922211307180   -0.03187786912710
H        -1.46155571750706    3.07394200867184   -0.16410046833856
H        -0.79951200491367    2.64597333376509   -1.76752178667991
H        -2.52992234693277    3.02812258088602   -1.58827382935494
