76
 energy: -138.722125276843 gnorm: 0.000479711295 xtb: 6.3.3 (4ae9cef)
C        -1.87117081067417    1.73062356844564   -0.93397943700938
C        -2.78273592333266    2.71079430981013   -0.66558511769907
C        -3.20569551468451    2.96422533501253    0.65579824216491
C        -4.19245054156139    3.92441402581442    0.95903365614181
C        -4.58409495605994    4.13482954393003    2.25152742102535
C        -4.00113774389300    3.40316958509003    3.29861824750668
C        -3.04148662312056    2.46622334096486    3.03667770424506
C        -2.62477874023902    2.21545527985398    1.71268330046924
C        -1.67770228806239    1.21966691050584    1.40444000305083
C        -1.32858003437480    0.95263194184483    0.10642808577609
C        -0.39461078489970   -0.17724556707071   -0.23172105613614
C         1.07840981589353    0.12013087176398    0.12878623998494
C         1.81961320329232    0.70681274782557   -1.04014101239984
C         2.12966362365643    2.03905081950987   -1.07549336952247
C         2.78637829372094    2.60205114438383   -2.18828699293769
C         3.11929632757364    3.97137775955989   -2.24621597684107
C         3.76385441707520    4.48681078296716   -3.33564205282701
C         4.10392119502179    3.65866450147912   -4.41695646191478
C         3.79289615391918    2.32789134482593   -4.39171157928306
C         3.12854026556965    1.76572431510619   -3.28252120339272
C         2.79183945605374    0.39723231541746   -3.22214400013506
C         2.14825601855866   -0.11688331269773   -2.13474509556243
N         1.58913188751911   -1.19394671434147    0.51090088413758
C         2.92281298451731   -1.36997286224170    0.75998940384281
C         3.33451497712789   -2.75947669277159    1.12627853486347
C         2.96282896302538   -3.85182779603495    0.34616284575947
C         3.40771241824622   -5.11762194968607    0.67178232240656
C         4.22621236765761   -5.28295368568492    1.78251458578997
N         4.68263886388520   -6.60777386978354    2.13067358239398
O         4.31120454468783   -7.52987997473954    1.43702449113418
O         5.40796449408588   -6.71701511663002    3.09468502418038
C         4.62243270900381   -4.19807619577949    2.55516118467396
C         4.18267994155145   -2.93476862009407    2.21552013928462
O         3.72521559851828   -0.47497267840895    0.62246933941359
C         0.51582880345103   -1.94925355120295    1.10377163833520
C         0.52852496996607   -1.80071001115356    2.64321459752690
O        -0.66259556443729   -1.51827142367003    3.14902793136186
O         1.52535095152854   -1.93267904024482    3.29579594716478
N        -0.67420962741155   -1.40879253315372    0.49611667846486
C        -1.83471992845332   -2.11187716465840    0.51182140838572
C        -2.98669006825116   -1.37989948335360   -0.11060047247745
C        -3.89976968239359   -0.74762987387570    0.72813293602891
C        -4.91148639846664    0.02233146812953    0.19289871302563
C        -5.01681647250153    0.13180395611577   -1.18817962161202
N        -6.02364782370645    0.99689957897952   -1.75250075121410
O        -6.11731652474620    1.03770653173175   -2.96002824405314
O        -6.70238895126889    1.64343091234944   -0.98454757778780
C        -4.15854861768097   -0.55702486859916   -2.03542804504461
C        -3.13891352592739   -1.31332950524250   -1.49091169769048
O        -1.91852057451744   -3.20870660490140    1.01876747821828
H        -1.56252370604060    1.53524123330056   -1.95066083770512
H        -3.20578090637237    3.29750907618794   -1.46790420971681
H        -4.63937899974300    4.48301116299043    0.15020806561662
H        -5.34597967067684    4.86529452525051    2.47735809645718
H        -4.32105691403313    3.58588970792012    4.31373745966503
H        -2.59286882021021    1.89773581180202    3.83889911237227
H        -1.26293970855114    0.63355045769918    2.21122253228141
H        -0.45640070302004   -0.37836297863684   -1.31065072355850
H         1.12654445715873    0.80912909239432    0.98402861055197
H         1.87838261562389    2.67895436816262   -0.24159056056173
H         2.85734890315753    4.60422584129223   -1.41054617901871
H         4.01825346936261    5.53580375915664   -3.37283021000959
H         4.61456752603799    4.08320862602431   -5.26868385973352
H         4.05347305963480    1.68611213000396   -5.22118757455472
H         3.05405326361718   -0.23977363521180   -4.05464033760112
H         1.89824472722418   -1.16773408459545   -2.09559415162301
H         2.34551298009053   -3.71023347537978   -0.52862113134969
H         3.13495118439608   -5.98070603051269    0.08373089446554
H         5.26922839335062   -4.36179605869910    3.40331093024761
H         4.47784838067687   -2.07328338297483    2.79213882852522
H         0.58978418195680   -3.03007240068627    0.90963917872653
H        -0.63554853320820   -1.51131564865467    4.12104560743330
H        -3.79477834650147   -0.84510921800330    1.79702062202120
H        -5.61041963267027    0.55214158058295    0.82143020086347
H        -4.29029069294565   -0.47243948260474   -3.10331645118919
H        -2.45787903275083   -1.84634577220978   -2.13690471382013
