72
 energy: -121.674262210896 gnorm: 0.000304528254 xtb: 6.3.3 (4ae9cef)
C        -1.97382455625341    2.56771792811255    0.15674638268076
C        -2.57188800853045    3.53325631155005    0.91399843379864
C        -2.67330880212926    3.39588975380689    2.31395142907693
C        -3.29718100955659    4.36767789441379    3.12316416140652
C        -3.38046349408294    4.20029654031199    4.47704217928645
C        -2.84269380282222    3.05422674262883    5.08376721782270
C        -2.23061480586650    2.09507999585861    4.32699176346849
C        -2.13002151620523    2.23693820253291    2.92714281074157
C        -1.50727439025400    1.26506781856178    2.11969623038433
C        -1.43932938240843    1.41435971866302    0.75982115912874
C        -0.74965253017685    0.39493434738330   -0.10539782617945
C         0.77750053608305    0.59541084013629   -0.11084497350831
C         1.22980997498690    1.33688530948912   -1.33935928377915
C         1.64123045800783    2.63914357101483   -1.25491792499610
C         2.02527514823501    3.35456121629586   -2.40672626952899
C         2.45488685760274    4.69646976601487   -2.34542248566428
C         2.82880509329630    5.36204155318994   -3.47901584731896
C         2.78890593779777    4.71773605664460   -4.72547937557780
C         2.37507152960605    3.41826490222929   -4.81765291186407
C         1.98330391037595    2.70380691208923   -3.66703102574134
C         1.54889199937828    1.36273382348285   -3.72452471414966
C         1.17517189675312    0.69704028065423   -2.59355132412426
N         1.30246899485201   -0.76202443646408   -0.04592747323840
C         2.61140761859794   -1.03286685441395   -0.29244025079823
C         2.93474978298487   -2.48401836176765   -0.32061410988541
C         3.14916667294556   -3.23206361574041   -1.44204270991089
O         3.45034052735341   -4.49637624454293   -1.11756982635226
C         3.45383847801100   -4.56938568124518    0.22561156881647
C         3.14541737474471   -3.36495830399103    0.78441964422321
C         3.05071794018635   -3.02427447037068    2.23107239347287
O         3.43076171543057   -0.16262432943322   -0.48361954466552
C         0.29289629072781   -1.73865256779896    0.27688796701937
C         0.15452557921588   -2.78937056102595   -0.84455056726908
O         0.27618315595901   -4.03010101622079   -0.37992416325547
O        -0.07236558821293   -2.52308731539665   -1.99130026210918
N        -0.92212059944415   -0.96530605525540    0.38594036113840
C        -2.17878200785311   -1.48884310066665    0.48812423921864
C        -2.22829967930674   -2.91268110757274    0.89547217949537
C        -1.78974259844234   -3.49559504898403    2.04923086370729
O        -2.07485057912238   -4.80338905736242    2.05810960500102
C        -2.70075992546145   -5.07975594800649    0.89822221198241
C        -2.84120680511404   -3.95929449810877    0.13687056784619
C        -3.46417367350662   -3.80577235363872   -1.20326700651106
O        -3.16974953531697   -0.82597295498372    0.27684609633506
H        -1.90473600724189    2.67656435266615   -0.91564175638485
H        -2.98409785436621    4.41635415950155    0.44748076266229
H        -3.71100266321807    5.24737350609330    2.65108844465229
H        -3.86167176622375    4.94751194930506    5.09098647180381
H        -2.91861141809684    2.93778269336638    6.15507237922940
H        -1.81710325277263    1.21035948006949    4.79031002946833
H        -1.09533617755117    0.38414359936087    2.59283370014922
H        -1.14328804539654    0.46226180944381   -1.12895139038244
H         1.09185379948363    1.14459909095973    0.78770040999193
H         1.68095143744009    3.13672274303596   -0.29611008575667
H         2.48499835692505    5.18731061409802   -1.38310986932189
H         3.15896020871391    6.38925755317733   -3.42487826977009
H         3.08938768633066    5.25887399561540   -5.61090646224924
H         2.34315132698597    2.91793727612386   -5.77521839756368
H         1.51488633902382    0.86853950942668   -4.68495184965245
H         0.84097229117335   -0.32916316321554   -2.64968880095480
H         3.10403067615217   -2.97464984616320   -2.48139810164059
H         3.69095196214973   -5.51642441997722    0.66739992812017
H         3.85256812096011   -3.50684830130236    2.78500817656990
H         3.12496516440626   -1.94847997288901    2.36950961614197
H         2.10360385209061   -3.37036020142805    2.64688365753508
H         0.51919827729335   -2.26815559214949    1.21451042309328
H         0.16842193728450   -4.68498912175145   -1.08997435537679
H        -1.31082714817494   -3.08860426180419    2.91799150089329
H        -3.00430659906270   -6.09423252075109    0.73322998756074
H        -2.71763117861212   -3.50773788538718   -1.93974457944790
H        -4.21831396605280   -3.02186539533777   -1.16708141472417
H        -3.92500354267534   -4.73721125215544   -1.52030274430903
