70
 energy: -122.111605303581 gnorm: 0.000863596369 xtb: 6.3.3 (4ae9cef)
C         1.75130314347187   -3.54768344221652    0.35876164844454
O         0.95403842041320   -4.05307233710268   -0.62403174342403
C         1.20150683369810   -5.35842369567040   -1.08683957768410
C         2.73234640212325   -4.27031783467374    1.02742369423333
C         3.47688297854505   -3.67306237123123    2.03052264412577
C         3.25423646576701   -2.35580985312433    2.38321555327461
C         2.28175135832389   -1.62807219716103    1.71921803367621
C         1.53528816635816   -2.20767071461814    0.70724734284881
C         0.47842430694219   -1.41628125298553   -0.01677315570232
C        -0.75329914984802   -1.15447970509149    0.86697234602013
C        -1.96729940540418   -1.91062571213971    0.39656532551775
C        -2.48121862270487   -2.94310319047009    1.15990849985066
C        -3.57848892128762   -3.66912307194359    0.73044528726225
C        -4.17287849785159   -3.35177240353012   -0.47516984591258
C        -3.67499387261018   -2.32090623424465   -1.25397752062007
C        -2.56943695253753   -1.59512126480222   -0.83028714111036
O        -2.01021184102674   -0.56614503949681   -1.53671541358248
C        -2.49675793408086   -0.29501868223760   -2.83264688430838
N        -0.94442194788564    0.28940901737230    0.80299194270500
C        -1.98711144644124    0.86852057810499    1.44406518935516
C        -2.09370941698231    2.35250617569110    1.24824003460644
C        -1.83961000829224    3.21193255833189    2.32251770510791
C        -1.42267829789194    2.68330737246526    3.56925668577696
N        -1.07695624212135    2.28392099150694    4.58491343009745
C        -1.97564726305089    4.59043450996267    2.16201289417540
C        -2.37494437984334    5.10405429960985    0.94264196846353
C        -2.64716699873737    4.25288552049419   -0.11856746316376
C        -2.50839791419227    2.88190642574905    0.03337154659996
O        -2.77725574476275    0.24471424755161    2.11598257774827
C         0.05033053524767    0.96415122687520    0.00898060179207
C         0.79200266460422    2.04299112699301    0.84192017774038
O         0.64770754540549    3.30820905633924    0.42207485963264
O         1.46079378437878    1.77139248409458    1.79149002365067
N         0.95652654782424   -0.08586497721260   -0.37571592059611
C         2.11763721135278    0.05802998786045   -1.05564982460316
C         2.61920864613756    1.46405625366506   -1.22490804896098
C         3.74094369645813    1.84087138068050   -0.49897572633939
C         4.29328026146749    3.09932234515468   -0.66207498436736
C         3.74744972034923    3.99142992514552   -1.57334142967658
C         2.64601037219586    3.62817930803824   -2.32136110356100
C         2.07619477468266    2.36358634652036   -2.15014576145706
C         0.93052727531926    2.03084510237609   -2.90418888251959
N        -0.03182045953174    1.82262182298678   -3.49471200131635
O         2.76268960944931   -0.88425333761281   -1.46111093061835
H         1.03296843858936   -6.10244206956331   -0.30162867482212
H         2.21898041313277   -5.45914712196474   -1.47642247711144
H         0.48824656324653   -5.52180485113481   -1.89331273484921
H         2.92678129789190   -5.30000029153515    0.77269311789447
H         4.23638600310970   -4.24979096653518    2.53733025821973
H         3.83270668371049   -1.89421437692582    3.16825698145608
H         2.10512799547896   -0.59541169731485    1.98445369364847
H         0.19778243961543   -1.95386100783105   -0.92854686088525
H        -0.54685167775740   -1.42953905646771    1.90865477791217
H        -2.01453826450921   -3.17535494618622    2.10491499239097
H        -3.96880331431904   -4.47104208325642    1.33736432785712
H        -5.03440157951433   -3.90388926366985   -0.82028911845967
H        -4.15912576788390   -2.08907300485847   -2.18939837963602
H        -3.52722429349683    0.07460402258059   -2.80510860651958
H        -2.44554600568871   -1.18135596614084   -3.47102551257797
H        -1.84041182244592    0.47460566723750   -3.23840745057718
H        -1.77009160819556    5.24298985012137    2.99680889942318
H        -2.48344906926112    6.17074151127850    0.81967369786473
H        -2.97412959676676    4.65625391461075   -1.06528064936998
H        -2.73635575501020    2.21477598289447   -0.78544058093920
H        -0.41297255610190    1.42286816659369   -0.88546078275715
H         0.02928617191439    3.40828017368681   -0.31748587194810
H         4.16721353855562    1.13791310863928    0.19995355323762
H         5.15625121631310    3.38341664453676   -0.08022408080130
H         4.18366677247109    4.96982380068625   -1.70356169757668
H         2.21573337348592    4.30818711451593   -3.04206147424060
