78
 energy: -124.153717644416 gnorm: 0.000849084891 xtb: 6.3.3 (4ae9cef)
C        -2.03949257445403   -0.59089906332296    1.73741955112743
C        -3.23444050411333   -0.30909973854449    2.33302310086706
C        -4.04271353434827    0.74961036220815    1.86845479530712
C        -5.30033303773581    1.04069181232871    2.43553475238044
C        -6.06115840574478    2.06917879245663    1.95430822888995
C        -5.59711201331112    2.85699332068924    0.88886597773722
C        -4.38029328856318    2.60311123249389    0.32148065344821
C        -3.57502659172390    1.54470409586147    0.79023009760971
C        -2.33386046880681    1.23483348363060    0.20188515869193
C        -1.58849516859378    0.17480491280573    0.64382586829683
C        -0.30332703203981   -0.19720645536236   -0.04048672823812
C         0.94400944101502    0.03947782904414    0.83684457821957
C         1.56675756158210    1.37864587520405    0.55876545971621
C         1.39728107433561    2.42014898604063    1.43021211726686
C         1.94835569068140    3.68899492251094    1.16181766919757
C         1.79245124822607    4.77489383895538    2.04832574854815
C         2.34835323986777    5.99124524773141    1.76672702920680
C         3.08396931592723    6.17886569419180    0.58596795559061
C         3.25043978002381    5.14677141242162   -0.29463409912828
C         2.68992470251575    3.87981496157917   -0.03301990978460
C         2.84266860115178    2.79151699864458   -0.91741399676613
C         2.28987203008802    1.57691428468666   -0.63346792385813
N         1.81449487017985   -1.07014715139686    0.46827852703174
C         3.07223734765611   -1.15883274187377    1.01189355817805
C         3.80535129765449   -2.41173492127982    0.66746217999512
C         4.29913490314446   -3.21196523623588    1.68803830044733
C         4.99253037026962   -4.36742364491085    1.37361433258830
C         5.21231074566283   -4.71151498102892    0.05220393506156
C         4.74829622404971   -3.90407338107486   -0.98055991294670
C         4.98736831736380   -4.28241619835730   -2.41134460844448
C         4.03971964068940   -2.75549291749328   -0.65905871831476
O         3.55551285195417   -0.25558730067974    1.65474330462348
C         1.01227339900062   -2.20855213139300    0.11560916793589
C         0.78913518902589   -3.14446492534426    1.34784223351396
O         0.10594739483300   -4.23811478028132    1.09291226835117
O         1.23109052199747   -2.86559872036747    2.42581950800892
N        -0.23686395334477   -1.62174274457956   -0.34638716340094
C        -1.17267288439272   -2.34559878414341   -0.98545674120667
C        -2.36528774470614   -1.59464359608892   -1.46222866429046
C        -2.27172959475939   -0.66500743383163   -2.48947738892654
C        -3.38754836331059    0.05175272306898   -2.89558069259762
C        -3.29874775621793    1.05261118335621   -4.00630769026500
C        -4.59913758393190   -0.17521878839781   -2.25159118439825
C        -4.70253055770147   -1.12104149595769   -1.24912807678448
C        -3.59073231386236   -1.84489298017553   -0.85873962155691
O        -1.05088400453820   -3.56185117997572   -1.12826406638383
H        -1.43441295980144   -1.41188998574090    2.09535672047094
H        -3.58162768258665   -0.90244057307929    3.16629051466440
H        -5.65253242228320    0.43325898713007    3.25685831253081
H        -7.02511509100354    2.28492764260967    2.39100359857448
H        -6.21166962244942    3.66647273002711    0.52316309021590
H        -4.01609401036765    3.20589259691034   -0.49805206239703
H        -1.98559818537216    1.83715070429083   -0.62525994547743
H        -0.20124921756568    0.38025630430485   -0.96862242088248
H         0.68147827937551   -0.03107256993345    1.90152354924212
H         0.84275196410542    2.27669060270110    2.34664102274189
H         1.22796635042022    4.62418735720547    2.95731624536974
H         2.22801794498512    6.81769599350139    2.45190389099533
H         3.51852828438967    7.14638818247703    0.38092399353261
H         3.81777581351709    5.28628320254313   -1.20406618333520
H         3.41034799932862    2.93633730839414   -1.82574586518759
H         2.41890304462278    0.74602581040240   -1.31245650109492
H         4.12029573515351   -2.92938933046926    2.71287475943928
H         5.36798601989290   -4.99997666220696    2.16389850579633
H         5.75776339206282   -5.61337336941821   -0.18623770847948
H         5.96560646272013   -4.74300943319050   -2.52945190685816
H         4.92702442828975   -3.41181696520557   -3.06056211627560
H         4.23638143615640   -5.00356762620391   -2.73732995885242
H         3.68629541163617   -2.10705990836141   -1.45021396234811
H         1.46773455527677   -2.80992504741813   -0.68610396047593
H        -0.29240942128930   -4.23310783447524    0.17244281853186
H        -1.32328740177412   -0.50450939236064   -2.98317430390021
H        -3.79320636001839    0.66608806131438   -4.89723517732919
H        -2.26394467013336    1.27084333396719   -4.25774444799817
H        -3.79747318805319    1.97843278970738   -3.72625079560438
H        -5.46964800854022    0.39220661868665   -2.54671856709333
H        -5.65226369633310   -1.29475864208926   -0.76648151429151
H        -3.66142156712173   -2.58570056377858   -0.07744449476132
