60
 energy: -106.715222968465 gnorm: 0.000996555859 xtb: 6.3.3 (4ae9cef)
C        -3.29155239388794   -1.36441698078525    0.19231943368398
C        -4.50261630926275   -1.88427701336961   -0.23219088562166
C        -4.57690259388203   -3.18051916198896   -0.70873427374622
C        -3.43426334217414   -3.96237501244678   -0.74607378143368
C        -2.22467982040250   -3.44392910384865   -0.32272860829306
C        -2.14061817017219   -2.13435022311678    0.13675987326899
C        -0.79877100538293   -1.61342575946021    0.59911024316076
C         0.31010775676419   -1.76409902812953   -0.46814263650070
C         1.54751529592333   -2.43173959118938    0.07679565504569
C         2.28156602095287   -1.81340758065384    1.08174410557247
C         3.41191579004859   -2.42039556007261    1.59637778822612
C         3.81832833638516   -3.65250793599885    1.11205336767003
C         3.09217456474062   -4.27176548449349    0.10984069485530
C         1.96177932893451   -3.66331083296342   -0.40691621884580
N         0.60385007302155   -0.39106810199599   -0.86202797684967
C         1.45993998960198   -0.11354089962021   -1.87576639983458
C         1.62707070294975    1.35942581553048   -2.12528522143973
C         1.00597302887482    1.97528690892580   -3.20442543556196
Cl        0.01145017512008    1.03358197425652   -4.25596626857492
C         1.16530284796153    3.33098310647555   -3.44074899063796
C         1.96194594107260    4.07787225320876   -2.59215250172826
C         2.60014751810822    3.47532920437489   -1.52034705686494
C         2.43364067970474    2.12209442071408   -1.28922684416653
O         2.04772523021295   -0.97209888036122   -2.49237011294725
C        -0.20607762939480    0.57064916833787   -0.15832262555850
C        -1.27776031919402    1.18574128890604   -1.08970048823166
O        -1.87022020630063    0.26985670293936   -1.83588766063347
O        -1.51551869350385    2.36112522480187   -1.12446315264667
N        -0.78662283821657   -0.19301624969386    0.91354534824806
C        -0.93690382013652    0.24349480814833    2.19492500019159
C        -0.69553606242687    1.71547046583179    2.37177355336671
C         0.53527270763559    2.15822363414419    2.84267296301042
C         0.77589094283472    3.50975566550538    3.01353303982939
C        -0.21713599225508    4.43061643930703    2.72216031849288
C        -1.45479727486820    4.00521175621523    2.27318286270293
C        -1.68831994577470    2.65066528466197    2.10234920766835
Cl       -3.23633714524781    2.11866363467074    1.56566756110555
O        -1.22681984001822   -0.49967095327105    3.10324062707540
H        -3.25099779451123   -0.35829799243960    0.57829604084582
H        -5.39105564655054   -1.27185397779852   -0.18446317690624
H        -5.52180286149277   -3.58436907046315   -1.04046338554514
H        -3.48634886110632   -4.98070511747980   -1.10192511450444
H        -1.33914742556096   -4.06301734021917   -0.33728291705375
H        -0.52801855953672   -2.14964934177013    1.51912744350472
H        -0.05324009559963   -2.31271298589160   -1.34391576134497
H         1.96562032164475   -0.85152834475823    1.46216107353822
H         3.97712819895642   -1.93208792359558    2.37671662442569
H         4.70179936249721   -4.12611287799237    1.51340789151577
H         3.40919532240113   -5.22963332148984   -0.27483395779053
H         1.40427333212720   -4.14151159451958   -1.19851842144586
H         0.66652254425399    3.78934906618738   -4.27965016145775
H         2.08598196893039    5.13461359595403   -2.77182187699064
H         3.22718173623690    4.05936544971099   -0.86442577704495
H         2.93623425587885    1.64108177346056   -0.46241257279551
H         0.38523613411758    1.41276436643804    0.23109844750424
H        -2.52594178206359    0.66524993272476   -2.43401857539881
H         1.30061622524738    1.43238024883241    3.07616102103427
H         1.73646496778947    3.84293877722119    3.37505560169058
H        -0.03225978024740    5.48587582445915    2.85156996337924
H        -2.23758509175390    4.71372644992984    2.05356308778109
