68
 energy: -116.956075673917 gnorm: 0.000407163749 xtb: 6.3.3 (4ae9cef)
C         1.43777855887246   -3.49776693875885    0.09664048783264
O         0.81674502048281   -3.80220256689469   -1.07237207546675
C         1.24316784901340   -4.93452044239203   -1.78931809888441
C         2.33061041128695   -4.34095083512885    0.74975898776246
C         2.88039053318924   -3.97409241000397    1.96586788842937
C         2.54499270742266   -2.76865931271398    2.55121879567968
C         1.66953995339454   -1.91774146480967    1.89815451512704
C         1.12023564775036   -2.25855529646626    0.67454841916863
C         0.21131413403888   -1.30915576847382   -0.06548152409282
C        -1.03768342808675   -0.89692745573658    0.72872243758635
C        -2.31488273502553   -1.19853015063395   -0.01601679052576
C        -3.21091378101006   -2.12744774514136    0.48021375115975
C        -4.37955110091984   -2.42718228019860   -0.19920062605672
C        -4.65743487823659   -1.78405534178787   -1.38923377090735
C        -3.77490965272524   -0.84904334803914   -1.90413803703791
C        -2.59971446036433   -0.54974195628667   -1.22741442574764
O        -1.67135279304733    0.35200463329155   -1.66221037275289
C        -1.86025209338757    0.98281580384511   -2.90366647126620
N        -0.87174904547310    0.53199833523132    0.95761442041688
C        -1.78889897897481    1.18237721377623    1.71873005352486
C        -1.64302803106675    2.63041886483282    1.89934209365226
C        -2.47208677146740    3.47116213435026    2.61402698245483
C        -3.69077784092383    3.10743258764612    3.37754636119082
C        -1.91277500570414    4.76627021943904    2.47816212056454
C        -0.80264852200789    4.62728302221781    1.70432012468680
O        -0.62727903810167    3.34851689159406    1.34579778797163
O        -2.71306924254827    0.57664350208895    2.23901184020001
C         0.28654827389591    1.07505606075760    0.31113320586565
C         1.31723733486024    1.65012736468284    1.30861151986340
O         1.06070080856251    1.30485543652760    2.56950329891676
O         2.27083693569969    2.30241470584153    0.98982525198565
N         0.86767621986349   -0.04605347746345   -0.38691811754908
C         1.87789950145375   -0.03592846962455   -1.29479596796033
C         2.39643151115980    1.26400512951268   -1.74786085235102
C         3.65955629719295    1.55671029272798   -2.21113249382075
C         4.82679564742580    0.64476276245748   -2.32069846887626
C         3.63343989991674    2.93444735289801   -2.54722393698870
C         2.37226259442170    3.36707557016998   -2.28536808294994
O         1.61386475921959    2.37276069114672   -1.80698363168302
O         2.34426861726031   -1.08201345968975   -1.71768335747530
H         0.67508209612424   -4.92292078963274   -2.71834500105320
H         1.02671682542442   -5.86163591485903   -1.24738765223997
H         2.31135005178222   -4.88107984586747   -2.01818966668424
H         2.60538991255127   -5.28972546294644    0.31689551739907
H         3.57224049744070   -4.64265620241985    2.45675797744901
H         2.96449764541423   -2.48894257135944    3.50561482159177
H         1.40355195911692   -0.97504490553138    2.34982553526846
H        -0.06488007888914   -1.78936151776433   -1.00961543852360
H        -1.07653515296571   -1.40530424850247    1.69928069953459
H        -2.99034750611450   -2.61586879132812    1.41685010726565
H        -5.06898762943063   -3.15342592300533    0.20250211781622
H        -5.56729492774645   -2.00315817767035   -1.92827578271757
H        -4.01391016478186   -0.35720492588364   -2.83396636501815
H        -1.93038616051568    0.25542188633330   -3.71854748498054
H        -0.97692469105466    1.60290347096124   -3.05362565517613
H        -2.75272402202034    1.61756532080384   -2.90311815766664
H        -3.41173919740984    2.63876405449433    4.32039839336961
H        -4.27578225986887    2.37909536972334    2.82187234501706
H        -4.28787728654929    3.99183253232510    3.58547652235708
H        -2.29364026537347    5.67316827533565    2.90141470769679
H        -0.07798476745962    5.33400713946848    1.34981592296921
H         0.02190125791417    1.87821507953093   -0.39067325718327
H         1.73433986748927    1.66778452759255    3.16804890618698
H         5.24600367842605    0.69227251655015   -3.32436895160715
H         4.52044541627917   -0.37463275508327   -2.10853797178671
H         5.60222287148572    0.94398420960585   -1.61615626745888
H         4.44794505086264    3.51225775682774   -2.93361583336219
H         1.90404316254713    4.32511603751376   -2.40136433011185
