80
 energy: -125.752640839556 gnorm: 0.000415528532 xtb: 6.3.3 (4ae9cef)
C         1.63071767437574    3.40825879850031   -0.93741910041738
O         0.76951461322514    4.01906903117288   -0.07338552423159
C         0.71004868172007    5.42289899004244   -0.05740510984804
C         2.46993706129492    4.07920209028145   -1.81727578517413
C         3.29409841832372    3.36816842451052   -2.67380768235808
C         3.28645929950822    1.98729102997434   -2.66966353756607
C         2.44872596589113    1.31385756156043   -1.79717743100051
C         1.63201131476732    2.00643481342984   -0.92336546029341
C         0.67371757474965    1.29486668566208   -0.01159287146981
C        -0.60583121436029    0.89102753351988   -0.76765722196878
C        -1.63943408465705    1.97615908272403   -0.66977919340944
C        -2.41469380818897    2.13858113478421    0.46326127320626
C        -3.31589049652435    3.18418008766079    0.56408427260896
C        -3.42896311854532    4.08476883969662   -0.47667951616623
C        -2.64849669874368    3.94892774583544   -1.61270524890974
C        -1.74624208057221    2.89855962361027   -1.71989540548808
O        -0.92076525054855    2.69529500876576   -2.78701145579670
C        -0.96572607366677    3.60333844125290   -3.85867490745475
N        -0.98876815390957   -0.35739498448045   -0.12402439455454
C        -2.18448726179744   -0.96161370052504   -0.38146951341157
C        -2.39609230712669   -2.24265309148404    0.36213286569140
C        -2.48448666682816   -3.45826875062394   -0.31320354855429
C        -2.37486448008255   -3.52809069735929   -1.80904812448484
C        -3.75273155924260   -3.35294611543394   -2.45058273585321
C        -2.70638062076378   -4.61255373405739    0.42652260865616
C        -2.84737751328575   -4.56548286366055    1.80055152324347
C        -2.77301141808750   -3.35215030461592    2.46305282150328
C        -2.54497217298228   -2.19468185178396    1.74354404225626
O        -3.01447112977568   -0.46099961629945   -1.10985580523179
C         0.16173214059791   -1.00387484134002    0.46638687532146
C         0.60395601551428   -2.21184474640863   -0.38422535985918
O         1.05259766901950   -1.84065653152239   -1.58076566045886
O         0.51356017190710   -3.35424206754617   -0.03236343402333
N         1.16758700774660    0.02892911220010    0.50767254366898
C         2.36700725782462   -0.07803665421031    1.13917928009679
C         2.69050228756191   -1.48131316392262    1.55460842201475
C         3.41509257732246   -2.27405783048354    0.67410997404797
C         3.72200744818470   -3.58110667841555    1.00492995735724
C         3.30403591930113   -4.09557058589981    2.21951468320258
C         2.60542700909729   -3.29739264208897    3.10686633792586
C         2.29299925604237   -1.98162760684813    2.79334877914577
C         1.61224435771007   -1.09552254062866    3.79803770680783
C         2.66073727244158   -0.31336871567804    4.59325388228834
O         3.10813855346072    0.86714661258101    1.29742559744761
H         0.40385407943631    5.82416827662212   -1.02929821974082
H         1.66785985353599    5.86545992748462    0.23453827631420
H        -0.04613632868469    5.67394197048990    0.68505288266849
H         2.49175568223141    5.15737794378943   -1.84419583135466
H         3.94235702438343    3.90633448785638   -3.34967149531305
H         3.92607400980968    1.43655963829039   -3.34243257031923
H         2.42468957803231    0.23472472258157   -1.79186265895511
H         0.42420144687115    1.95995639914768    0.82539601281345
H        -0.37348765373428    0.70953812002558   -1.82474467626187
H        -2.31651555479682    1.43118163252735    1.27340889554688
H        -3.92203655937119    3.29472792911253    1.45008256573352
H        -4.12696519697156    4.90645366133008   -0.41109637110828
H        -2.75322400051094    4.66887486843467   -2.40928852396924
H        -0.21847923892433    3.25268091686801   -4.56909852699073
H        -0.70581562732107    4.61795555543623   -3.53829112247460
H        -1.94904197462937    3.61357567815615   -4.34024847288043
H        -1.71506055451012   -2.73912831633900   -2.17711052863625
H        -1.95266436013953   -4.49376816312690   -2.09658376918955
H        -3.68309078822694   -3.45688728188671   -3.53099583649448
H        -4.13914376156129   -2.36409018768671   -2.21775183705425
H        -4.44609647063074   -4.09995696822971   -2.07066095955903
H        -2.76413558119499   -5.56144012508785   -0.08677698129335
H        -3.01641418921517   -5.47556518567065    2.35682609213009
H        -2.89015082306788   -3.30772649756871    3.53560391631644
H        -2.49514949586405   -1.24109454805014    2.25111379185861
H        -0.07378311080180   -1.40178373836218    1.46651761801528
H         1.29736846540088   -2.61589810488458   -2.11311432608388
H         3.74092705040217   -1.85510395793451   -0.26776734651191
H         4.28186829765730   -4.19618976064068    0.31644061205041
H         3.53001881165705   -5.11887969734576    2.47943240847916
H         2.29427232144833   -3.69965575829120    4.06031580556622
H         1.01151836111898   -1.70284180776234    4.47886475371849
H         0.95248570570257   -0.38237189015393    3.29849000307209
H         3.23810470780651    0.31861710682304    3.92286503238215
H         3.34070150452564   -0.99650463660804    5.09722625435799
H         2.18016393222641    0.31525045819597    5.33936571467141
