88
 energy: -142.863924301609 gnorm: 0.000369070557 xtb: 6.3.3 (4ae9cef)
C        -0.14291813069379   -3.73667134696456   -0.92919514711219
O         0.12403884880975   -4.13156652664926    0.35028798555281
C         0.53012750747232   -5.45874737296210    0.57245038716695
C         0.02460109784019   -4.53625785381760   -2.05238979227590
C        -0.24516037912108   -4.02962338488073   -3.31323585794322
C        -0.66961776164671   -2.72463499192566   -3.46997695488631
C        -0.84313732854832   -1.92329783463420   -2.35382057736792
C        -0.60128402540852   -2.42145188015401   -1.08610070947063
C        -0.77932949449851   -1.56726762760985    0.14302338206613
C         0.46595285367806   -0.69159801781662    0.39770553619346
C         1.09957680322922   -0.95080013975162    1.73969376122065
C         0.45322811292703   -0.59854327489583    2.91169503482606
C         1.04088756990217   -0.82336927315552    4.14473921945552
C         2.28981013097722   -1.41170895298602    4.20186861505371
C         2.94988496555384   -1.77864983742498    3.04124511587928
C         2.36390719411307   -1.55525174816841    1.80093965031320
O         2.93772661465224   -1.87908821171087    0.60976839869212
C         4.20430010335646   -2.49069543881567    0.61364826753556
N        -0.02804288490524    0.66802831350264    0.27128052157020
C         0.71713690845498    1.74960915600855   -0.04251452082803
C         2.18943592875250    1.52983441243296    0.05832571769473
C         2.93530413577486    1.28825543296364   -1.08766136048509
C         4.29409455374209    1.05917315317776   -0.99283608247746
C         4.93507141060177    1.07678943298602    0.24397632737891
C         6.38033661526143    0.82186387119817    0.34454424006596
C         7.17406422159549    1.56451827283879    1.21590944150226
C         8.53225429334938    1.32411518877141    1.30953010767840
C         9.11970380765080    0.33369490072544    0.54020710273352
C         8.34032344392898   -0.41208842882058   -0.32810497592014
C         6.98323723052208   -0.16834595289275   -0.42848637576113
C         4.17951307584983    1.33948198905751    1.38451722924974
C         2.81927916657717    1.56125588630899    1.29547496021188
O         0.19351945158097    2.80402953793113   -0.35492355357977
C        -1.46841307079437    0.74863810837031    0.17290292203991
C        -1.84769453071146    1.65219277604987   -1.02162007501892
O        -2.59114828286897    2.68161863384708   -0.63928124259646
O        -1.56576434392855    1.39788559234341   -2.16023767353595
N        -1.87817295727662   -0.62140051074683    0.01116849545988
C        -3.13632261981092   -1.06352638228297   -0.24809035470654
C        -4.14143733039387    0.02608247949195   -0.44236695858695
C        -4.58790584577179    0.30985767651280   -1.72717445128166
C        -5.50765336089492    1.31937102505639   -1.93344678170726
C        -6.01564612894062    2.04927764493367   -0.86088619511801
C        -6.98664758676044    3.13079075337406   -1.08394102065120
C        -8.08606030960359    3.28373629384807   -0.24259676028980
C        -8.99845818763937    4.30032697136724   -0.45486340926491
C        -8.82447324977962    5.18434652183064   -1.50653187372643
C        -7.73391167101173    5.04285885092864   -2.34812935248297
C        -6.82393532655346    4.02300138006327   -2.14120003295898
C        -5.58834458810794    1.73310774582470    0.42675500189992
C        -4.65788757601265    0.73417475202929    0.63524753094501
O        -3.40267329959554   -2.24384344328762   -0.32287570092452
H         0.65020360878419   -5.55136047582762    1.65118510625371
H         1.48627181383964   -5.67404252482372    0.08327895923860
H        -0.22379279402941   -6.17444043524538    0.23035372386434
H         0.36151967399465   -5.55666279626275   -1.95828017325283
H        -0.11561395044009   -4.66674806273729   -4.17584452669861
H        -0.86869810410126   -2.32917128729104   -4.45400356476833
H        -1.17186104000955   -0.90101713986359   -2.47007649594338
H        -0.97412381150751   -2.22819308327022    0.99588339024538
H         1.21585276624529   -0.87809023197989   -0.37779916665935
H        -0.52073629641952   -0.13583391162802    2.85428882836583
H         0.52804985709414   -0.54043478977886    5.05088790615129
H         2.76175659843005   -1.59103899031342    5.15640505121017
H         3.92448582096807   -2.23430709680796    3.11444638512304
H         4.96597115648606   -1.83909024523658    1.05325459899542
H         4.44341953847281   -2.66778846950371   -0.43369839538623
H         4.18676482073400   -3.44732547306288    1.14523199489208
H         2.44453626770711    1.27725294584134   -2.04961778871397
H         4.86966137459409    0.88243954089259   -1.88931347439992
H         6.72523996193949    2.35086652208997    1.80489771503514
H         9.13625762512288    1.91366228239890    1.98362576541271
H        10.18033473971603    0.14536868414650    0.61531928596949
H         8.79233181513329   -1.18679662437090   -0.93027906310607
H         6.37949553875198   -0.76093431626005   -1.10021151039856
H         4.65619713501994    1.34361348533711    2.35397682559701
H         2.24355022259802    1.75690371182496    2.18783510415046
H        -1.90024650676852    1.20873356877199    1.07917438155148
H        -2.75919500455057    3.27584207920644   -1.38734375001056
H        -4.20128641851790   -0.25810125775253   -2.56009356388747
H        -5.85262691202604    1.53211435879433   -2.93464782307308
H        -8.23599545857092    2.58620575984153    0.56852100885576
H        -9.85045084290252    4.40268259315235    0.20151089542743
H        -9.53640048544203    5.97966951262690   -1.67028824844602
H        -7.59197829823867    5.73108597762134   -3.16866088348801
H        -5.96822659290087    3.92576223585227   -2.79373829934278
H        -5.97102435421448    2.29251338916288    1.26741578910011
H        -4.33492223982714    0.49717024301294    1.63889585072131
