74
 energy: -126.846144534818 gnorm: 0.000926658802 xtb: 6.3.3 (4ae9cef)
C        -4.75312732631893    2.72274613484011    0.57609453546408
C        -4.69803153946358    2.92845297680232   -0.77239043213048
C        -3.57389823015297    2.50647761816334   -1.49663509004493
C        -2.54496001809788    1.85733370686517   -0.87345980115365
C        -2.58292506229726    1.59393679369207    0.51365402460525
C        -3.70123101463218    2.07064461671670    1.25341774412793
C        -3.74793077925345    1.88822510683587    2.65057388729245
C        -2.72370325759598    1.26482356523429    3.30396347802021
C        -1.64457252624869    0.74967271580967    2.57641751293315
C        -1.57524707348184    0.87575307413305    1.21029642567893
C        -0.44480195364977    0.19551472684048    0.48095609717313
C         0.91331727781954    0.89529693161991    0.68412518884184
C         1.21758143921500    1.87125229602703   -0.42228825009239
C         1.17000454310027    3.20871341680349   -0.11927595390683
C         1.38608771217325    4.18911010286333   -1.09471834612480
C         1.65634489299835    3.82164123737956   -2.38059815688670
C         1.71057239822586    2.45976074487742   -2.74070539717141
C         1.47744857564642    1.45743348529071   -1.75757749641153
C         1.52459913911270    0.10699681962995   -2.17080167264193
C         1.80176594138197   -0.22943993806402   -3.46740219774770
C         2.04160725692917    0.76116087514691   -4.42923884470947
C         1.99199822120044    2.07758601600659   -4.06944014937482
N         1.85620291081679   -0.21292155856439    0.81702820504468
C         3.19664281727787   -0.02203144861606    0.71104038091440
C         4.01460847889488   -1.26265946386036    0.90821293678494
C         4.37347655318526   -1.67710853239314    2.18584823232054
C         5.16339064445845   -2.80205868841854    2.35647228103601
C         5.59813180303524   -3.51970687736912    1.25848801406727
C         5.25156021377301   -3.09495583188360   -0.02505587280913
C         5.69559826479336   -3.82849592749136   -1.15126791358307
N         6.05296764758404   -4.43534009603820   -2.05483458385188
C         4.46530446390099   -1.95786715771791   -0.20325708801095
O         3.68819632008762    1.05498236549042    0.46233112560398
C         1.18771027329050   -1.39843858222776    1.29535271359262
C         1.60449113735836   -2.70277154442663    0.58072606005330
O         2.10096959518558   -3.59245688399886    1.42569908795132
O         1.50023417366269   -2.86299088720956   -0.60300460222142
N        -0.20812446731927   -1.14815067088202    0.98924390046958
C        -1.07443679106602   -2.18484498871016    0.92015824930384
C        -2.44486692443850   -1.79194814832957    0.46360285946799
C        -3.44449002467952   -1.54634752222634    1.39014979583545
C        -4.68643391317480   -1.09051148609879    0.95285236135340
C        -5.68539039238259   -0.76805580723136    1.90057666196607
N        -6.49048440873088   -0.49128463932598    2.66774860594959
C        -4.93563855153314   -0.91854764707456   -0.40868086008807
C        -3.94594258548810   -1.21660599471149   -1.32519064311806
C        -2.70049486571261   -1.64487975121201   -0.89509007429858
O        -0.73742521587062   -3.31249193561097    1.22212815659307
H        -5.60275269258215    3.05857616900232    1.15226887388460
H        -5.50676451988342    3.42690225405001   -1.28538360139466
H        -3.52207404126213    2.70100607782185   -2.55754318129204
H        -1.68462954385666    1.56878651688825   -1.45736890562142
H        -4.60802698561326    2.25127933790360    3.19253382012857
H        -2.74932092178379    1.14062823959134    4.37584196824687
H        -0.86729109617106    0.21210731705177    3.10138036431643
H        -0.66618648508576    0.13155002917611   -0.58812199462060
H         0.89659047143835    1.44918533892626    1.63488307475830
H         0.96625976236544    3.51932844130686    0.89547828073520
H         1.34314810526708    5.23097976103940   -0.81540919445057
H         1.83559992200230    4.56618696439281   -3.14274323782359
H         1.35321535357780   -0.68976208913431   -1.46627463317376
H         1.83812657036370   -1.27117515257993   -3.75043649735017
H         2.26389790593757    0.47630765226193   -5.44696848324470
H         2.17230663301400    2.85433389305197   -4.79898644693429
H         4.03932636157538   -1.11431391463021    3.04476410487416
H         5.43856694269356   -3.12051550647401    3.35013530292983
H         6.20857986543268   -4.40200903119608    1.38148135242968
H         4.20111121589430   -1.62795374768593   -1.19707734064119
H         1.32961502045801   -1.54971485131680    2.38047627363638
H         2.24708161128975   -4.44369645493208    0.98199054222691
H        -3.26047477144664   -1.68479871328345    2.44481579839718
H        -5.89927866693501   -0.55628406504109   -0.73347528198866
H        -4.13918920084321   -1.10212335747281   -2.38070134092230
H        -1.92409058935846   -1.86941842610524   -1.61180671317638
