74
 energy: -119.414804238749 gnorm: 0.000838204521 xtb: 6.3.3 (4ae9cef)
C        -1.64498867317926   -3.71684449868792    1.45220608402810
O        -0.61877105581948   -3.72489069530364    2.35040633055647
C        -0.66481349388226   -4.63468020734633    3.42256528158807
C        -2.67050856574288   -4.65461551769454    1.44169676219175
C        -3.67844435449453   -4.57996299773935    0.49621237382597
C        -3.68097803763552   -3.56724540866759   -0.44285684279655
C        -2.66207443030410   -2.63062892901897   -0.43734574121995
C        -1.63555127598106   -2.69558766981195    0.49033520989987
C        -0.54856393533051   -1.65712929459326    0.50139853960082
C         0.37926296313751   -1.67109078530620   -0.73440460845367
C         1.50314942413272   -2.66336296536016   -0.79677848830637
C         1.82257551539693   -3.53854003843458    0.22268283579863
C         2.86610756442028   -4.44027808823881    0.07795515451984
C         3.59793377520922   -4.46271681059091   -1.09107173204999
C         3.28912104118455   -3.59663200478274   -2.12793424193008
C         2.24046781775347   -2.70045962434183   -1.99336277014601
O         1.84342526917367   -1.82165662436604   -2.96001140326115
C         2.65405316032606   -1.67067979150403   -4.09859483878738
N         0.80754197381459   -0.26645050518689   -0.80714107239638
C         2.03057350369397    0.19653976925252   -0.40233472143105
C         2.08277106773754    1.68046229937695   -0.20639501366063
C         1.78387207159002    2.57394955680351   -1.23048075421615
C         1.82023246119774    3.93394962488171   -0.99283970694275
C         2.14897126157250    4.43322164132651    0.26361411536999
C         2.15734812064611    5.91136576368050    0.50525091505924
C         2.47217403643192    3.53522776986686    1.27168404048785
C         2.44962780632303    2.17165100919066    1.03997111286640
O         2.99731049162223   -0.51008462791085   -0.22724209404681
C        -0.41252625785088    0.46449310972274   -0.59032674017513
C        -1.24071670852758    0.54821102934492   -1.88228826103289
O        -0.50152058263647    0.96740864514729   -2.90546918265208
O        -2.41006381486776    0.30061470336681   -1.97003692816710
N        -1.09064230418228   -0.29447119210020    0.43858445428065
C        -1.80489748565868    0.24580667360180    1.46100043313327
C        -2.02157808442209    1.72147606904515    1.30369354495309
C        -1.13199126274929    2.60465020267121    1.90323855623890
C        -1.28546675934193    3.96887310973727    1.73390203999551
C        -2.33093836516943    4.47593797646185    0.97450002875468
C        -2.50745038963067    5.95215855845114    0.78533737015458
C        -3.22521662607367    3.58392850157981    0.39147322487410
C        -3.07494073575601    2.21868903994567    0.54784642231709
O        -2.19955955019696   -0.40671875661774    2.40091352570805
H         0.19953154479266   -4.40020406952512    4.04273476866136
H        -0.58799311822172   -5.67043386680266    3.07526800199904
H        -1.57710266617203   -4.51010682473890    4.01283495813012
H        -2.69766231861427   -5.44639742143114    2.17341112028717
H        -4.46917944155832   -5.31559416501663    0.50740009451054
H        -4.47452020640491   -3.49803425625674   -1.17086134192284
H        -2.68180625433203   -1.81981924671751   -1.14874223400585
H         0.02995281670784   -1.75371946088199    1.42672400387799
H        -0.24839416267700   -1.83493344615305   -1.62452630946408
H         1.25945432761432   -3.52364484039255    1.14023526463265
H         3.10748611704486   -5.11556742297357    0.88462964579001
H         4.41875143897674   -5.15492151679764   -1.20813980202689
H         3.87477796198096   -3.62950080330179   -3.03309697208392
H         2.66571704774423   -2.57846881202877   -4.71171108852609
H         3.67834789012391   -1.40132505601411   -3.82440471833528
H         2.20902440457475   -0.85748775343634   -4.67091990952079
H         1.52184795997275    2.19518433531864   -2.20668804254414
H         1.58467087307160    4.62314884670218   -1.79119291010528
H         1.19975286036697    6.34637564419606    0.22222479284325
H         2.92916994882124    6.38796498502908   -0.09831043892929
H         2.35068040758580    6.13591528953346    1.55107495210251
H         2.74378408995179    3.90454971147720    2.25019610735694
H         2.70532174877669    1.47758729561219    1.82689154793144
H        -0.22309283729221    1.49712988514690   -0.27141738078947
H        -1.03249721736319    1.00804334175413   -3.71854961356361
H        -0.31498387355088    2.22166759647026    2.49754728448094
H        -0.58215193126575    4.64437115325382    2.19866559874852
H        -3.45414612977554    6.27654251140815    1.21568620944391
H        -2.52305619021066    6.20196808702847   -0.27480467371629
H        -1.70350095836709    6.50546197966525    1.26409133337084
H        -4.04699604865221    3.96676892112976   -0.19655976406055
H        -3.76550765962088    1.53359135888004    0.08075830089700
