68
 energy: -120.246320031121 gnorm: 0.000426605687 xtb: 6.3.3 (4ae9cef)
C         2.08584684851224   -2.53212085431897    0.53880067137671
O         1.59538950874881   -2.81016382529784   -0.70074325491241
C         1.93386029329678   -4.03364158182289   -1.30940993781853
C         2.93320134873709   -3.35947936266804    1.26364033804274
C         3.37722186554173   -2.97065825523068    2.51746104217429
C         2.99069826856543   -1.75832870592735    3.05434920492230
C         2.14643424431090   -0.92875912125063    2.33286883008289
C         1.68601905710849   -1.30084305567261    1.08403271408423
C         0.75483440692911   -0.45436612047358    0.25466611231603
C        -0.70519264300905   -0.97394139012434    0.33733065479978
C        -1.24677868565253   -1.37305327276120   -1.01017105597559
C        -1.57510721901942   -2.68961461308452   -1.27455352055726
C        -2.06212307290376   -3.06755745239934   -2.51401481006124
C        -2.23351442552091   -2.11245639877080   -3.49697891017454
C        -1.91746172352564   -0.78669745296819   -3.25128488460689
C        -1.41754241604408   -0.40649065021412   -2.01308373460211
O        -1.06071934690809    0.87330642923947   -1.68843312309804
C        -1.30601887946192    1.90602868048898   -2.61533029769661
N        -1.45108816477847    0.14622902249266    0.89234475122811
C        -2.77551569912093    0.03068464280415    1.15849549855985
C        -3.43238653963137    1.29035644268394    1.63164852992722
C        -4.06621196286459    1.33411830807205    2.86606614887177
C        -4.70782196546596    2.49184534283092    3.27231408247727
C        -4.74319882427845    3.60278005664032    2.44663436524706
C        -4.13011385934768    3.53553317817692    1.20706203906787
Br       -4.18929004666324    5.04492282145390    0.04628253196171
C        -3.47120951380604    2.39434854236659    0.78873364681157
O        -3.38992179344197   -0.99760712576299    0.97273912333490
C        -0.57868557929890    1.20253710315442    1.32088458584039
C        -0.45046059382704    1.22640838720708    2.85352610134191
O         0.50770927249906    2.05775219429323    3.25197430697828
O        -1.15132451206070    0.60381368302745    3.60022307972211
N         0.67443904719383    0.93790074215798    0.65763371837825
C         1.26896549003299    1.95609157880749   -0.02919887956744
C         2.44699331917024    1.54869419508540   -0.85249370551243
C         2.44857258189303    1.87001545864779   -2.20376006479755
C         3.52718403857966    1.49646870084359   -2.98398056526509
Br        3.50597372881338    1.89634439206537   -4.84511544066134
C         4.61590685514883    0.83471660493744   -2.44200698559217
C         4.61975803765155    0.55135253225055   -1.08677606666161
C         3.54198389846668    0.90023842283435   -0.29195548767865
O         0.88248070173946    3.10264639699011    0.04628267228670
H         1.40737285610609   -4.03591597479050   -2.26245260911707
H         3.01121887836382   -4.11032113571869   -1.48717053701103
H         1.60024108380870   -4.88607827299805   -0.71040089213960
H         3.25336068453193   -4.30739505626595    0.86159652528604
H         4.03320404131708   -3.62495499254247    3.07144451385218
H         3.34259679695785   -1.45613305998062    4.02846684327359
H         1.85693553941252    0.02758182957647    2.73845209480588
H         1.09275027397111   -0.50999788029865   -0.78572801535814
H        -0.77453356624048   -1.83187645472589    1.01741503056350
H        -1.45428650607033   -3.42391888968000   -0.49327728759242
H        -2.31540495764043   -4.09878165591480   -2.70563439329088
H        -2.62017013270432   -2.39077320910009   -4.46596291076999
H        -2.06466273542058   -0.05807061630075   -4.03259303818187
H        -2.37066187683380    1.98583655398952   -2.85691440115057
H        -0.73844854907760    1.76233291788789   -3.54041156298881
H        -0.97529063109795    2.82250928457817   -2.12588941801623
H        -4.03889137183121    0.46400220243308    3.50195788916335
H        -5.19099146212404    2.53187706917150    4.23661103125482
H        -5.24610973229072    4.50620797729281    2.75549628532262
H        -3.00779029967137    2.35569905418450   -0.18554462019427
H        -0.91772254642181    2.20738033296313    1.01853659715625
H         0.54924945782388    2.10638522424032    4.22175850678907
H         1.61337041205195    2.40150614169463   -2.63175532586734
H         5.44896504999683    0.55443811007764   -3.06814735077174
H         5.46996038287493    0.05022457234515   -0.64977593691245
H         3.55395356391434    0.67887830709058    0.76322095730524
