78
 energy: -128.024144347613 gnorm: 0.000363517478 xtb: 6.3.3 (4ae9cef)
C         1.85546564061330    1.24734855718556   -1.83906245104646
C         2.67193683511591    1.94872897566102   -2.67795397304060
C         3.24399157928986    3.17409201681121   -2.27620177600422
C         4.09167492177074    3.92167306271066   -3.11911549450929
C         4.62815376646697    5.10590077845040   -2.69724465624088
C         4.34143964781338    5.59642249334080   -1.41361225534402
C         3.52333292814808    4.89496073291745   -0.57318139554252
C         2.95493065477155    3.66932008298679   -0.97808368762938
C         2.11570396077928    2.91836619268439   -0.13090958532049
C         1.57883163828577    1.72972135426729   -0.54466401749352
C         0.66587071285464    0.94013672512051    0.35767739314707
C        -0.79290881254067    0.96998950485464   -0.13241942982533
C        -1.72678886524161    1.61044361171603    0.86239788218327
C        -2.05853154786608    0.96601877227517    2.02569552220823
C        -2.93764143911540    1.54995304659974    2.95848660208864
C        -3.30579168706854    0.89665523184760    4.15340488795827
C        -4.16444334162445    1.48898708093074    5.03600400055314
C        -4.69369843527816    2.76094058108310    4.76587328537025
C        -4.35539611510280    3.41957633358198    3.61713806825113
C        -3.47269247366185    2.83585944522757    2.68514991914335
C        -3.10391889319379    3.48351320843242    1.48786497127531
C        -2.25651520731179    2.88633310484029    0.59920825563065
N        -1.13826532212664   -0.42800683241445   -0.35046487465357
C        -2.24671082901377   -0.72907818792593   -1.08378234690269
C        -2.51498907015308   -2.17504617501169   -1.24805251270755
C        -2.87647662780092   -3.08059070007796   -0.28635254340731
C        -3.07109865353627   -2.93262104172297    1.17999669023007
O        -3.10478547873165   -4.28149383515996   -0.85054786411121
C        -2.89783192359041   -4.15116696668808   -2.17911214540490
C        -2.54822567062863   -2.87571303766301   -2.49702572559044
C        -2.22812437921022   -2.29335534328792   -3.82505398691600
O        -2.95819408752179    0.14011228072040   -1.53969463496934
C        -0.09498196569482   -1.34125163504081    0.04259447060277
C         0.25553062421530   -2.29894242557206   -1.11272749347343
O         0.10527654148825   -3.57414837540216   -0.76456959120246
O         0.61290397638945   -1.94026224908392   -2.20033094098478
N         1.01202918384728   -0.47635677321072    0.37163706597016
C         2.29074841350284   -0.86167331274307    0.63141690943491
C         2.55242399450295   -2.31233215253769    0.47348740940151
C         2.24822864296267   -3.34531330611516    1.31648763591033
C         1.51927929694556   -3.37556752194695    2.61157626246751
O         2.72837591595919   -4.50101828965166    0.81723436852207
C         3.35291383626710   -4.21151505040561   -0.34491394693275
C         3.29535132186804   -2.87897202757903   -0.61274442103044
C         3.83329649874175   -2.13071720442182   -1.77767464955926
O         3.14683533363767   -0.06252363896093    0.94358725553090
H         1.42254611496332    0.31063357114246   -2.15786052171224
H         2.89159321980158    1.57179658681437   -3.66669874115071
H         4.30987436587002    3.53967627823817   -4.10646596260922
H         5.27763141156209    5.67338484368376   -3.34785493587192
H         4.77508126997358    6.53372467168578   -1.09648729050515
H         3.30135929614680    5.26714854181537    0.41682473951811
H         1.90880713140009    3.29309330940974    0.86158076255490
H         0.73960131359004    1.33388547857125    1.38018304496338
H        -0.87260872454577    1.49996116565762   -1.08967359941216
H        -1.64840828176927   -0.01098634782753    2.24421307865022
H        -2.89695722219056   -0.08310304250107    4.35816011474600
H        -4.44340862855028    0.98265424427816    5.94849770365722
H        -5.37139480510136    3.21315719422109    5.47497026828859
H        -4.76105059574610    4.39818287548587    3.40388423782450
H        -3.51165970620965    4.46234530291677    1.28095056961347
H        -1.98748772784583    3.38323482849391   -0.32065501726348
H        -4.00671500508274   -3.40292691462115    1.47689715374223
H        -3.10361438537957   -1.87888893744418    1.44275786508591
H        -2.26441846417083   -3.42209964908685    1.72765968370070
H        -3.04376487240271   -5.02325700120089   -2.78442214810028
H        -2.80849441010959   -1.38517493320551   -3.97540962016353
H        -1.17227276742663   -2.02484153119799   -3.87174822019903
H        -2.45102842193333   -3.00261706913782   -4.61751125191681
H        -0.39206495849810   -1.95887284457674    0.90844264128548
H         0.32584147253717   -4.16777325954225   -1.50113663335820
H         0.56784329068856   -3.89707098787137    2.50130711418887
H         2.10693562011009   -3.90881435808615    3.35683975107426
H         1.34202541980901   -2.36139839114161    2.95805971570047
H         3.80518811457852   -5.02645364436970   -0.87374047732185
H         3.02116063673218   -1.85387136322931   -2.45082849836815
H         4.55059104419170   -2.73749938144029   -2.32355932872180
H         4.31275321478572   -1.21461332756238   -1.43860265399709
