78
 energy: -117.622913391185 gnorm: 0.000644117042 xtb: 6.3.3 (4ae9cef)
C         2.98239944734474   -1.73448767354884    0.91946954377051
C         3.96235430292348   -1.93117399124862    1.87537303615398
C         3.79335140755173   -1.43528515747625    3.15635717266523
C         2.63215367060637   -0.75633599038160    3.48472042004535
C         1.64736413614929   -0.56579003304412    2.53303405505056
C         1.82291931549332   -1.04296529913286    1.23979989844185
C         0.75767951031653   -0.82592240955642    0.19975538177918
C        -0.50532799777341   -1.67778842169742    0.45564005164308
C        -0.49472832943201   -2.93964596531641   -0.36250010013575
C        -0.20428120193018   -4.15762136127761    0.23327653772045
C        -0.16032171322817   -5.31248292730498   -0.52742359471659
C        -0.40698148770381   -5.25877873671280   -1.88821184536705
C        -0.69374913638112   -4.04439850319652   -2.48839824516432
C        -0.73041518648714   -2.88896535874757   -1.73037286585561
N        -1.59176556923965   -0.78296880550014    0.07755088800231
C        -2.89054739348588   -1.22378675123762    0.15175593293332
C        -3.90876146836979   -0.16912837812791   -0.11933614570972
C        -4.88106183735401    0.10224620073890    0.83443510941963
C        -5.82740847664371    1.08087607638608    0.60069156098017
C        -5.84143917360157    1.79314325996042   -0.59338716143648
C        -6.86741485500663    2.86888343437499   -0.84908002033746
C        -8.28258381982061    2.28894191452990   -0.82212106045641
C        -6.72410875405273    4.00202168693609    0.16877394087398
C        -4.88478674439490    1.49075202234763   -1.55458126112422
C        -3.92367455640375    0.52398928569390   -1.32348701659235
O        -3.15963203071665   -2.38487337522163    0.35767142001793
C        -1.19719726810233    0.58019841801126    0.29740495471210
C        -1.66206903842525    1.09089297973110    1.69985758135888
O        -1.38710777199289    2.35366499980303    1.94153338485772
O        -2.23187686956896    0.36892555949000    2.46713152026171
N         0.25299968835438    0.54093508380226    0.19749034396920
C         0.99221751060578    1.65893857032758    0.09517319157809
C         2.45065676075443    1.45500879717831   -0.10532544761817
C         3.32687966553483    1.82094974913072    0.90749483151926
C         4.68370509776293    1.61000810824171    0.75519856036559
C         5.19696297558717    1.05742645705635   -0.41108501518210
C         6.67893350628219    0.82207540042606   -0.55825640398204
C         6.97095410605054   -0.67088990336429   -0.72255074588191
C         7.24655743771024    1.62231335486258   -1.73247065292978
C         4.31306330254395    0.73284709545638   -1.43420559267823
C         2.95351058948744    0.92427815158106   -1.28651658939276
O         0.48061751366191    2.77427262387722    0.19061254587145
H         3.11673179025283   -2.11717919763450   -0.08165391457739
H         4.85978287692140   -2.47418414026555    1.61913015710911
H         4.56245570982992   -1.58211308433728    3.89965892463742
H         2.49054802475706   -0.37592838965388    4.48502129350424
H         0.74035858210456   -0.04043176033896    2.79681566649799
H         1.15856962636694   -1.06961316705377   -0.79241096043719
H        -0.58616128590093   -1.92937347518926    1.52231459923755
H        -0.02064358877113   -4.20090429855349    1.29668257363038
H         0.06031515377205   -6.25793898119860   -0.05463631886877
H        -0.38119356802954   -6.16169431978407   -2.48006954200853
H        -0.89187117444622   -3.99814831910966   -3.54926774559946
H        -0.96170513670601   -1.94229216141247   -2.19792579496966
H        -4.87087151458629   -0.44629443752844    1.76313979676939
H        -6.56485140175204    1.28892468287198    1.36082394896139
H        -6.68775970926233    3.28246847472829   -1.84771437010144
H        -9.00860011037174    3.05803803152527   -1.07633309863578
H        -8.52351953500757    1.90252573417088    0.16439117517571
H        -8.37233911958521    1.47660109946004   -1.53949683009116
H        -7.42687614971507    4.80108578884034   -0.05657642425977
H        -6.92195537895431    3.64444515082593    1.17552336025254
H        -5.71600781128911    4.40912954478859    0.14298412851635
H        -4.88950742632946    2.02050169201976   -2.49706634137204
H        -3.19525249485530    0.29286541307725   -2.08883904938281
H        -1.60943588162332    1.26284703901162   -0.46198521086952
H        -0.78545537622585    2.75201337503570    1.24340061265742
H         2.93961869009617    2.25454774728838    1.81697460493754
H         5.35434833199538    1.88214409146126    1.55708131397493
H         7.17044141446270    1.16630217102273    0.35813589630803
H         8.04409374039495   -0.84025961023178   -0.77155815392202
H         6.52072889428821   -1.05626050078515   -1.63389547753290
H         6.56901474903886   -1.22692255826063    0.12131978546931
H         7.01644867833025    2.67894133908661   -1.61599815858750
H         8.32691470491374    1.50618216293225   -1.77748960762308
H         6.82644264354171    1.28136751150155   -2.67512891330212
H         4.68696936684800    0.32196284343705   -2.35983692921417
H         2.28217842087411    0.67634632036167   -2.09640809565289
