120
 energy: -168.464035629154 gnorm: 0.000948586861 xtb: 6.3.3 (4ae9cef)
C         0.24758009703590    5.36782948759504   -3.44052572032225
C        -0.32355236625082    6.16581169145071   -2.49193540306079
C        -0.47895822349593    5.68698697420308   -1.18352864589554
C        -0.05905891153004    4.43119154195378   -0.84587094047586
C         0.53131276833635    3.57247749284785   -1.80003044628985
C         0.67920278724038    4.06102117766117   -3.12860289382868
C         1.24013844114789    3.23321873632934   -4.12152433916108
C         1.61919074914278    1.95531138393698   -3.82632695413746
C         1.46147471619890    1.46299074210573   -2.52663619765984
C         0.96082928337474    2.24848859460013   -1.51766347092243
C         0.76445724421553    1.64610196698376   -0.15326977625915
C        -0.52969886114813    0.79643606140380   -0.14916563537338
C        -1.75433043750219    1.65716751047541    0.00958043690293
C        -2.43272467309164    1.96727352538962   -1.14430063839511
C        -3.48507365654288    2.88849929056856   -1.15770581148555
C        -3.84359540499395    3.52908862566672   -0.00771164905782
C        -3.18670060593973    3.23865963030058    1.20461036381528
C        -2.14414500917597    2.27089463846250    1.22953773793037
C        -1.55219577400633    1.97437434988405    2.47563472620804
C        -1.93450703950300    2.61962107086595    3.61871532667484
C        -2.93433984462442    3.60181930510347    3.58186322075547
C        -3.55043659810806    3.89563089572679    2.39942614079495
N        -0.24584064151344   -0.23338449084977    0.83903911862959
C        -1.02136733022003   -1.34108679003973    1.04052972039799
C        -2.41742926544572   -1.19221559019285    0.52652905582945
C        -2.68369568888559   -1.45903037308672   -0.81019593138422
C        -3.97169730779816   -1.33041598836801   -1.30307713466249
C        -4.32553624898247   -1.59537353351009   -2.75879965589393
C        -5.31170371316059   -2.76990074429972   -2.82304747680634
C        -4.97020341018933   -0.33886017282654   -3.36039679807322
C        -3.10182433040829   -1.95258960024635   -3.60704152170895
C        -4.97877966043248   -0.95596484794235   -0.41615579901541
C        -4.74254337188138   -0.71719908507789    0.92859720903215
C        -5.84928930550603   -0.36235027369075    1.90939091503578
C        -5.55205328267056    1.00920772392390    2.52793325163876
C        -7.23009831435929   -0.29697075560891    1.25081076890093
C        -5.89418135309652   -1.43270534506985    3.00890440751578
C        -3.43464392173168   -0.83144573148922    1.39021058114348
O        -0.60018306001742   -2.32510298892342    1.60518888680893
C         1.17835286791892   -0.26915885120573    1.14288799167163
C         1.38785707545106    0.16270522628578    2.61245188540907
O         1.76873247671467    1.44048471647626    2.70783350071430
O         1.21752347146747   -0.54248432125470    3.56554619111704
N         1.76906897178733    0.65651493584113    0.21728963730429
C         3.10504864063190    0.85404674329330   -0.00242992924489
C         3.97742694865281   -0.33300235891016    0.24682130859344
C         4.69892481934089   -0.78965954386476   -0.85286064693357
C         5.52174362166290   -1.89776210619477   -0.74595456596356
C         6.32643490245135   -2.43882149177815   -1.91807370068537
C         5.90266312636504   -3.88849248702071   -2.19366981068686
C         6.11442137314411   -1.62714367174505   -3.19878127100029
C         7.81868572407198   -2.38946711280699   -1.56221037532644
C         5.60748928518989   -2.53449187420235    0.49125600145763
C         4.92244406553466   -2.08556172035401    1.60972645275144
C         4.99859089392506   -2.77518322629707    2.96292137074560
C         5.94995318387565   -3.97519494929004    2.96071134144206
C         3.59593303779276   -3.27479703741197    3.34003212512764
C         5.49661595058766   -1.77478895407261    4.01500066449480
C         4.10901161793657   -0.96454750545291    1.47035751785941
O         3.52511500260966    1.87767799953545   -0.49833283498459
H         0.37529478735693    5.72269689496567   -4.45344349190432
H        -0.65567722526871    7.16332645682121   -2.73910886062912
H        -0.93398008308926    6.32058911701786   -0.43627873551996
H        -0.19671583812521    4.10039459687428    0.17125367714565
H         1.35560493648403    3.62657617457709   -5.12121449914856
H         2.03929891566093    1.31528179087642   -4.58813924459706
H         1.75754497009188    0.44539296780069   -2.31372561340358
H         0.72176971457710    2.41948436870085    0.62015993670631
H        -0.60055577212486    0.31108968055404   -1.13450479602160
H        -2.13559949420286    1.50580154200850   -2.07509412456297
H        -3.99110623680706    3.10076552645031   -2.08735617912458
H        -4.63438116881740    4.26535247286190   -0.00689378251039
H        -0.80399084404006    1.20325808090521    2.52855129852575
H        -1.47145918624172    2.36815871274238    4.56194951216614
H        -3.21920310102252    4.10869086707881    4.49173242011482
H        -4.33771764119066    4.63475962543963    2.35967118350694
H        -1.87111022865901   -1.77622552352304   -1.44367768383941
H        -4.86823271116453   -3.65641320876097   -2.37491536878569
H        -6.23143403398004   -2.54382962800812   -2.29086680718705
H        -5.56230377228944   -2.99379483156779   -3.85776529724542
H        -5.20833691023218   -0.50678123626128   -4.40868252605767
H        -4.28634553441778    0.50412929230134   -3.29102681335446
H        -5.88770775857928   -0.07442524434613   -2.84286182146565
H        -2.62997125316678   -2.86481023707274   -3.25004588574131
H        -2.37150689495956   -1.14618267066324   -3.60166766920858
H        -3.41063634668204   -2.11746704201909   -4.63736622075888
H        -5.98181207487005   -0.86405562993335   -0.79569195955823
H        -5.52085944074603    1.77035833401993    1.75156145069959
H        -4.59636212729471    1.01484762488237    3.04395166734803
H        -6.32777076263636    1.27403655908917    3.24330641021296
H        -7.97599170745498   -0.04459833200315    2.00172279081944
H        -7.50398387139420   -1.25602932953936    0.81727297293466
H        -7.25999058171726    0.46894809586303    0.47901078104538
H        -6.07709490264792   -2.41235364866106    2.57259255528129
H        -4.95815049317654   -1.47523933233905    3.55781318632011
H        -6.69365059303921   -1.21302712863172    3.71342120537604
H        -3.19298824806266   -0.64855196389657    2.42571321524029
H         1.55359731991866   -1.29858100649678    1.04110550924988
H         1.88582160619009    1.70191187859421    3.63565040305175
H         4.59121134145371   -0.24916705773479   -1.77854248367139
H         6.10075942767843   -4.53084577368415   -1.34024784725649
H         6.44930109282686   -4.28153149393658   -3.04825625683171
H         4.83820498551595   -3.93390321884245   -2.41448077961231
H         5.07324100974579   -1.65474392831466   -3.51176481097269
H         6.41713501031279   -0.59213567048522   -3.06032629880935
H         6.71722628677361   -2.05013712946551   -4.00003055667224
H         8.11685264222547   -1.36676717851555   -1.34162849257286
H         8.41496944054283   -2.75104936230533   -2.39729875404426
H         8.04137579138048   -3.00430295349894   -0.69456407279330
H         6.23853368376421   -3.40242531060932    0.57654904655305
H         6.96388834512933   -3.67241222845804    2.70787189746114
H         5.61677571033237   -4.73806506253950    2.26083944452419
H         5.97093840818178   -4.42071894272830    3.95308815109482
H         3.21684001793483   -3.94926254223880    2.57512019304407
H         3.63467249393137   -3.81424915851837    4.28376606250077
H         2.88785830694070   -2.45814545831617    3.45001747664781
H         6.46725056220945   -1.37505062952392    3.72769055979664
H         4.80532829937635   -0.94525250527846    4.13222385443218
H         5.59637083306058   -2.26780101381019    4.97948428763226
H         3.59311836689538   -0.57189556367035    2.33086470245091
