84
 energy: -130.475115957599 gnorm: 0.000317207292 xtb: 6.3.3 (4ae9cef)
C         0.05859756541290    1.60331111413534    2.91249455924091
C        -0.00390051092499    1.95151019625014    4.23026550718665
C        -0.79164255217456    3.04252903881460    4.65276135543297
C        -0.88888460317873    3.42142447705469    6.00725693269342
C        -1.67143556264672    4.47763583798447    6.38126714144097
C        -2.39083120834409    5.20281976645015    5.41835180999164
C        -2.31383918504280    4.86230429690632    4.09709265624858
C        -1.51612130690023    3.77707255800464    3.67854028382826
C        -1.42576406182979    3.39445339763120    2.32510395073358
C        -0.65716630405814    2.32934186144447    1.94012510973775
C        -0.58439992459037    1.91045041777709    0.49263806980550
C         0.84026102435955    2.01024192711797   -0.08381312295515
C         0.94910032750650    2.42965430743236   -1.53112567461599
C        -0.08476364564193    2.34739640337729   -2.42631266173963
C         0.10973920109480    2.65001036276857   -3.79109015325080
C        -0.94124861873157    2.55639274656018   -4.72696095262691
C        -0.72588267639085    2.84176568704841   -6.04637964404801
C         0.54720764207129    3.23452668510122   -6.48890327697427
C         1.58573008656266    3.33361597150208   -5.60526643412747
C         1.39713278349564    3.04365585396276   -4.23844504311506
C         2.44446294819919    3.12302608014331   -3.29579356658483
C         2.22742416683039    2.82231327729988   -1.98300258299025
N         1.32855783232308    0.63644005616495    0.03005636590844
C         2.54893675133262    0.31362158935095    0.53316399159584
C         2.74690031298121   -1.15786220252478    0.73182688469541
C         2.47865573042100   -1.73461172019503    1.96715080304140
C         2.65004899465103   -3.09717993394545    2.13751507417742
C         3.09387291324739   -3.87873296813240    1.08627649693760
C         3.38346377126895   -3.31055030250609   -0.14846026281451
C         3.92558260862139   -4.15080593922437   -1.26835972803348
C         5.44539638226999   -4.27984167704871   -1.14716704874619
C         3.20652609869442   -1.94391991019838   -0.31510234109351
O         3.38479902301889    1.15280466267383    0.78672355786191
C         0.21826674684862   -0.24273869835720   -0.18056807325360
C        -0.01350694921271   -0.54629130086837   -1.67729644520255
O         1.13328703757687   -0.70423761064086   -2.33127708582934
O        -1.09424306980007   -0.67238664060942   -2.17797874006280
N        -0.89813531918717    0.48673258388070    0.36996450219821
C        -2.15411529963443    0.01294954664014    0.59562107794403
C        -2.26169992955623   -1.47638878899612    0.59345774120904
C        -3.11900721398071   -2.11037370509710   -0.29171854006123
C        -3.23922919915816   -3.49381586395956   -0.29390274866051
C        -4.19693513592125   -4.16831241595488   -1.23293242010670
C        -5.59368600078527   -4.22926681742025   -0.61134034903941
C        -2.49939200386714   -4.23215787292286    0.62068018739077
C        -1.66238373826725   -3.60305502940789    1.52628790754682
C        -1.54033772328996   -2.22593063619922    1.51762961104372
O        -3.08322647513752    0.75624602165361    0.82691848788688
H         0.66175959683414    0.76285967706992    2.60208183930454
H         0.54816510906720    1.39155131102260    4.97193799148201
H        -0.33421347310961    2.85915530277729    6.74514866292495
H        -1.74392642472586    4.76163083162057    7.42103519385194
H        -3.00607708443925    6.03319906929756    5.73283788400376
H        -2.86632899371307    5.41662916498232    3.35214541240048
H        -1.98858284089745    3.95166909304353    1.59024921189933
H        -1.30301997371703    2.50501143058009   -0.07887500267042
H         1.48295571267939    2.64542542450547    0.53432692959704
H        -1.07525849901619    2.04160126254360   -2.12289756777790
H        -1.91764126586328    2.25039414616371   -4.37993781841919
H        -1.53424697217920    2.76787492842449   -6.75891353127229
H         0.69833741515802    3.45774370787158   -7.53495539740515
H         2.56774624335833    3.63550813301889   -5.94074299560571
H         3.42596973651780    3.42323238759666   -3.63336037851795
H         3.03488873525665    2.86734142206346   -1.26758815477555
H         2.14215618614457   -1.12099340591875    2.79029204942392
H         2.43630648668458   -3.54934696967631    3.09467164592422
H         3.22212748771530   -4.94262319758552    1.22496925661297
H         3.67818993615271   -3.69186566879943   -2.22743417136920
H         3.47560461149526   -5.14534099214120   -1.23716487200404
H         5.90989795555360   -3.29688121494055   -1.17349013946983
H         5.71146992703862   -4.75826108174184   -0.20745609083816
H         5.84309635721065   -4.87549248900868   -1.96545262099262
H         3.42283294099880   -1.48155209949268   -1.26671700114840
H         0.37280020175436   -1.21429690943611    0.30922806926773
H         0.97087944710807   -0.89419423477863   -3.27013328527955
H        -3.68198985987336   -1.51430310528855   -0.99329823139338
H        -3.85350264535136   -5.18179599774742   -1.45056765600277
H        -4.24398263973480   -3.61199025687914   -2.17069499876957
H        -5.57035859618934   -4.79592425066978    0.31691046668936
H        -6.29344844522168   -4.70696090273596   -1.29314987109751
H        -5.95108011459421   -3.22650708375303   -0.39009462072787
H        -2.58451710819354   -5.30960960306933    0.62906362934914
H        -1.10284224991399   -4.18779795061162    2.24181488796556
H        -0.90633863051983   -1.73087256921398    2.24023610501620
