74
 energy: -125.923743824436 gnorm: 0.000368509514 xtb: 6.3.3 (4ae9cef)
C        -0.41383054871419   -3.25058353692704   -1.75446275005069
C        -0.67074727458479   -4.39632777636225   -2.48455609348965
C        -1.45280553521418   -4.33155852239370   -3.62621378858394
C        -1.98650597250710   -3.11838603512009   -4.02325939581847
C        -1.73316612145983   -1.96975922648569   -3.29148593904872
C        -0.93299887516622   -2.02523874346869   -2.15884780903833
C        -0.62696408579947   -0.79411487475909   -1.33334479475132
C         0.90958742318980   -0.54361073077582   -1.22246315071713
C         1.35683004904750   -0.37351033104482    0.20795286569932
C         0.94536809580970    0.73778815958860    0.93530306409539
C         1.38080952650433    0.91970981154433    2.23456858728553
C         2.22592184990400   -0.00713997182684    2.82217550741327
C         2.62346425453047   -1.12443169019663    2.10928183961189
C         2.18862887488478   -1.30849210783824    0.80853185088210
N         1.10981470256957    0.67394665824148   -1.98765259512434
C         2.25506716550924    1.38766573588304   -2.09690635652345
C         3.40945478639267    0.77248358110592   -1.37492049881180
C         4.19939910634141   -0.29076071399512   -1.71494731195064
C         5.12926331864262   -0.43607324920989   -0.66519490460894
C         4.84257609811676    0.54941319581884    0.24877962083174
C         5.41185887969742    0.86146861293409    1.54425265507744
C         4.91034265570052    1.93190044096330    2.28663887551266
C         5.42986050177446    2.22219702573560    3.53265500417572
C         6.45499518903910    1.45257227994775    4.05836597608590
C         6.95992464437203    0.38902861422553    3.32751785634335
C         6.44497491308527    0.09218460776451    2.08077797784526
O         3.80411309912810    1.29023984237451   -0.20024407465794
O         2.32627684503037    2.41324249883579   -2.73645804767776
C        -0.10017233685094    1.07203554412318   -2.66135905545752
C        -0.11734711198312    0.60655613302954   -4.12691658348760
O         0.93925772361675   -0.14936165458721   -4.42435922821457
O        -0.98229333627180    0.87461109499178   -4.90953124732525
N        -1.14943231978620    0.42898335466352   -1.90604944242026
C        -2.17190095844674    1.19855635940315   -1.40200056548781
C        -3.18856150406250    0.49263758385876   -0.60849767736457
C        -3.63156509835264   -0.81102443026301   -0.55455070001613
C        -4.73369057189913   -0.81747800647805    0.31423072416692
C        -4.90406033559956    0.48366118176522    0.73971409998825
C        -5.87770813956481    1.08137977682985    1.63322401374120
C        -6.82442688416153    0.29710442741856    2.29405712506970
C        -7.75117489144259    0.88522958405612    3.13243062257329
C        -7.74855940492627    2.25769125340609    3.32533349975255
C        -6.81104514784370    3.04316427198210    2.67402118333089
C        -5.88122749296653    2.46332313839096    1.83356422911709
O        -3.97188244245226    1.26524405930774    0.17329639187484
O        -2.25186998989894    2.38367922113761   -1.64724443714270
H         0.18532369842626   -3.30430280170187   -0.85666500289095
H        -0.26260441720153   -5.34192006832310   -2.16025168146831
H        -1.65154726422978   -5.22535270032017   -4.19808496613706
H        -2.60717075051184   -3.06018191305027   -4.90459542507262
H        -2.16862335644113   -1.03144438517448   -3.59887845330165
H        -1.04595094618862   -0.92924567546365   -0.32900694307086
H         1.45742635924436   -1.37149201298977   -1.68937466342413
H         0.29937922980971    1.47148624318061    0.47466516791666
H         1.06646806400025    1.79230845238331    2.78704020775539
H         2.58020963424903    0.14425815595686    3.83047069909612
H         3.28554019631603   -1.84756914484208    2.56135724819605
H         2.51444847408986   -2.17306011850776    0.24750276170545
H         4.12489013355685   -0.88214542612777   -2.60490173487008
H         5.90289135741642   -1.17314240938818   -0.60301823345966
H         4.11253420834837    2.52859513962984    1.87235193283439
H         5.03525389781223    3.05390203014082    4.09782470650887
H         6.86065196602070    1.68105120178823    5.03274386446695
H         7.76033752779934   -0.21212573660049    3.73367028439150
H         6.84226172730810   -0.73793278049230    1.51785433475684
H        -0.24182138346129    2.16328795429698   -2.65096578458829
H         0.92217872592477   -0.39917530382213   -5.36256439975790
H        -3.24310107559411   -1.65172592125450   -1.09171381614046
H        -5.32501450417690   -1.66914918574036    0.57963211605357
H        -6.83123629650448   -0.77193265393831    2.14945513771823
H        -8.48103518745645    0.27100135372952    3.63901988151577
H        -8.47609330089354    2.71281485915333    3.98072228963088
H        -6.80736765956426    4.11301601643135    2.82106213576994
H        -5.15208238107269    3.07032838340567    1.31944221314893
