22
 energy: -27.491379577606 gnorm: 0.000384096598 xtb: 6.3.3 (4ae9cef)
C        -3.54681668852766   -0.21220949595013    1.01182464568359
C        -2.14630089981202   -0.19246416505563    0.47763184810693
C        -1.49163130664535   -1.37317522635060    0.15332615530515
C        -0.19555251737038   -1.35637469662217   -0.32958095084316
C         0.48029190342142   -0.15710192926619   -0.50504989093068
C         1.89892846472847   -0.12765216487822   -1.01038986610276
C         2.84787562670537    0.01239345231907    0.14266733400637
C         3.71199664831368    0.99920913992866    0.28371166544060
C        -0.16853416646147    1.02427311355332   -0.16988074604045
C        -1.46363540989974    1.00640899975824    0.31252072392672
H        -3.53112271216276   -0.28458811893210    2.10007302668053
H        -4.07705975182148    0.69879112787558    0.74331501881263
H        -4.09696483480208   -1.06765309953915    0.62603727335572
H        -2.00346210009281   -2.31746540159229    0.27678729557031
H         0.29295981568785   -2.28801934454768   -0.57997214987674
H         2.11571594451448   -1.05918378703630   -1.54067913165373
H         2.03520778458064    0.70636404673688   -1.70164346041216
H         2.77147910915399   -0.76289239946707    0.89419818454311
H         4.37264951677648    1.06390165654888    1.13155371199792
H         3.80115027798734    1.78430361506362   -0.44975744167481
H         0.34699928362078    1.96632238456813   -0.29228394361628
H        -1.95417598789467    1.93681329288523    0.56248569772115
