66
 energy: -134.184565651661 gnorm: 0.000329878677 xtb: 6.3.3 (4ae9cef)
C        -2.23032934253121   -2.36319968952910    2.23999248306674
C        -1.11383226628725   -2.97172983731104    3.04067052488224
F        -0.41182291036586   -2.08231804902093    3.76684604767071
F        -1.53452577366946   -3.89801326638358    3.91096293405803
F        -0.20130084034399   -3.59731597328156    2.26045895994743
C        -3.52648898780590   -2.81062747926302    2.46527441547005
C        -4.57903118543421   -2.29339085332052    1.73584306279302
C        -4.33872157881882   -1.32919791883483    0.77303842118639
C        -3.05084383265082   -0.88654509207861    0.54663226200169
C        -1.97837267813165   -1.38771795762989    1.27557511415124
C        -0.59857036325300   -0.86895039496147    0.97628466433758
C        -0.07280221175881   -1.29870169057309   -0.40786896041056
C         0.69327168153803   -2.59557251654441   -0.39928874786438
C         0.18707724292660   -3.78131874975530   -0.93567592524770
C        -1.18573160046515   -3.85195384149748   -1.54447247798262
F        -2.16013816599970   -3.57287049714719   -0.64554427441743
F        -1.38750667739746   -3.00146140115263   -2.56486487474948
F        -1.48499732238457   -5.06696840518772   -2.02332249069352
C         0.94187427286210   -4.94762724537405   -0.89734077529334
C         2.20106031242089   -4.94868477047466   -0.32978828011208
C         2.70898442697098   -3.78023870696049    0.20817183303333
C         1.95934762992380   -2.62095946855324    0.17293155850177
N         0.77324893757526   -0.16637451460971   -0.79615997636458
C         1.39730026983675   -0.22599719262601   -2.01247575899857
C         2.08531160432074    0.96139658127619   -2.54071867854375
C         2.47729041183754    1.00200641303100   -3.85653674288836
O         3.08898183623591    2.14993862950870   -4.14218029984643
C         3.12146162372786    2.88566470230042   -3.00761082387047
C         3.76686103217070    4.22331322684231   -3.04061014547411
C         2.51697637424573    2.20790398998280   -1.99236805277992
O         1.37446942446128   -1.26398763035250   -2.64825020445378
C         0.50687778724246    0.98853606711701    0.01676594634269
C         1.63629545101865    1.36722545456759    1.00031164603356
O         2.19481137012113    0.31057842712113    1.57360969197844
O         1.91019515010102    2.50196083100411    1.28319689750253
N        -0.61044758207396    0.58542941286295    0.84666606400282
C        -1.20433659017413    1.37172901578857    1.80456523458857
C        -1.12529226065390    2.82309317600500    1.56631830667004
C        -0.89433266217739    3.77090355111412    2.52326972366848
O        -0.92144552672607    4.99663408202481    1.99246297263476
C        -1.19867486192592    4.86856575847421    0.67718876627915
C        -1.30349004744756    6.09772843336493   -0.15092936195685
C        -1.33136480785216    3.55156986438141    0.35715372066009
O        -1.78754550077622    0.88593695317597    2.74973940943254
H        -3.70692770565959   -3.56501495239898    3.21498702651672
H        -5.58221218397765   -2.64470745673762    1.91944141372398
H        -5.15514701576931   -0.92207247560155    0.19640383051853
H        -2.86791911711266   -0.13012648711085   -0.20178254061930
H         0.12189701472679   -1.16456930087846    1.74680954049676
H        -0.90853362085520   -1.35281234016878   -1.11413315666919
H         0.53958470091591   -5.85636052748530   -1.31696702837274
H         2.77932728979070   -5.85910360596215   -0.30943558941750
H         3.69111854660984   -3.77061759031563    0.65599249403980
H         2.36086044908120   -1.71100912164608    0.58789070403270
H         2.35345498651802    0.27717254880185   -4.63574237495404
H         3.28957942852179    4.85777524416170   -3.78591383933970
H         3.68430672914684    4.69115867729156   -2.06460873754305
H         4.81925932194074    4.13017161587559   -3.30517778406411
H         2.42940621066305    2.56965714850701   -0.99165960935381
H         0.26909367469045    1.87615539539297   -0.58188751892154
H         2.83012969441553    0.57443646337777    2.26078373558730
H        -0.68092657970709    3.67684541654727    3.56869528819676
H        -0.36999577003321    6.65728780893091   -0.11453283171168
H        -1.52081707090555    5.83083811785221   -1.18041611299380
H        -2.09564887074443    6.74265829793616    0.22667913920972
H        -1.58964137470105    3.15384769610765   -0.60334985730005
