92
 energy: -147.573121454745 gnorm: 0.000363419841 xtb: 6.3.3 (4ae9cef)
C         4.01522271440317   -4.65937363540281   -2.06723734378306
C         4.40812204441605   -4.05973410295902   -3.22965296657290
C         3.72383129497390   -2.92857266394461   -3.69436088940711
C         2.67209943904875   -2.41246693249242   -2.98883591330316
C         2.24814414047046   -2.99653886128182   -1.77583603756092
C         2.93404573019636   -4.15222501211869   -1.31706929793371
C         2.52130848444607   -4.77851023724500   -0.12270804599074
C         1.46691408363202   -4.28355530336417    0.58582004959720
C         0.79495695465413   -3.13323591621258    0.14855160516362
C         1.17714583893674   -2.47805632233724   -0.99249779688544
C         0.43600941620935   -1.27043109482222   -1.49581566882599
C        -0.73387467715462   -0.71223481819082   -0.64932264376266
C        -1.98206398326508   -1.55265969023337   -0.68623384502493
C        -2.48965504819223   -1.91568601281478   -1.91060926218352
C        -3.66138940678405   -2.67074122749552   -2.02775275007570
C        -4.34795899874329   -3.04084085024572   -0.90852702802749
C        -3.87503448865259   -2.68443407866509    0.36966396340682
C        -2.66352454574902   -1.94949919286972    0.49894362874380
C        -2.22384067893392   -1.64725159849555    1.80689046708259
C        -2.93938964561204   -2.02484231128968    2.90869305784088
C        -4.14649477507463   -2.72174306317383    2.77137379890208
C        -4.59826581921843   -3.04668495509102    1.52540697781319
N        -0.90480883256189    0.59800031352121   -1.28058131742337
C        -2.03393645926956    1.26903281161930   -1.60656378497053
C        -3.25294407486182    0.96047790433746   -0.80891837835651
C        -4.39372644728770    0.49508165766856   -1.45070435911549
C        -5.51657390907577    0.19043012725204   -0.70495585185147
C        -5.52487252722641    0.40071691888231    0.66092247414233
C        -4.41648560293024    0.94442319490258    1.30914687147171
C        -4.46960399298769    1.24672090085308    2.74740634884998
C        -3.33785430410984    1.15036157108913    3.55450244448153
C        -3.40645463912589    1.42422799237578    4.90760756724921
C        -4.60498715239733    1.81096354483114    5.48247437359715
C        -5.73321043507421    1.93115089466090    4.68909530917248
C        -5.66645583861130    1.65258651736861    3.33703714511022
C        -3.27182138700446    1.20041845864262    0.55741930724640
O        -2.00202764256943    2.11478272454522   -2.48663871055308
C         0.30908230845555    0.98322153367498   -2.00012382341501
C         0.01511069751550    1.13533329844934   -3.50512954970198
O        -0.71963241056790    0.12921527760897   -3.99342520067582
O         0.48486141393384    1.99621247269432   -4.19227453044159
N         1.25104508511141   -0.06617006239883   -1.69756128871983
C         2.37606801802715    0.16112046570383   -0.92926743893633
C         3.11735010934998    1.41555646938535   -1.21946756758158
C         3.81871787785498    2.00081204701780   -0.17043529155303
C         4.60031645143132    3.13181426043681   -0.37371120715161
C         5.35655094083241    3.72985536544701    0.73718882662953
C         5.44689949219662    5.11250419270928    0.87804915468724
C         6.16929559210827    5.66714017872023    1.91836249636939
C         6.81656693804891    4.85030484474150    2.83033344676944
C         6.73393743506099    3.47410716786271    2.69841520968387
C         6.00813980229088    2.91691625351378    1.66224659150972
C         4.67123352554454    3.67017960473580   -1.65787570062856
C         3.99361749327799    3.07867087943464   -2.70818024684743
C         3.22058617990923    1.95026760982164   -2.50032141049216
O         2.77733724345666   -0.64201505076503   -0.11427947457238
H         4.52972837462284   -5.53606597867607   -1.69976602852915
H         5.24011693502510   -4.45084015354932   -3.79675745559500
H         4.03471535140877   -2.46279930410149   -4.61841085531066
H         2.16648892493742   -1.53891106545943   -3.36989390048260
H         3.05393972723276   -5.65586414502994    0.21508493368796
H         1.13963337757936   -4.76497297917915    1.49559860288637
H        -0.03305339139127   -2.77661301117314    0.73815075716691
H         0.03698151726253   -1.52599719283645   -2.48657227605951
H        -0.37187476734091   -0.55138512411944    0.37135042329350
H        -2.00063318870931   -1.58856675806227   -2.81525265695820
H        -4.02014768508088   -2.94088895471586   -3.00960206913498
H        -5.26485482212775   -3.60716837782099   -0.98271427503776
H        -1.30033584147250   -1.10920741095095    1.95824271192655
H        -2.57755166612275   -1.78361804932188    3.89708296293608
H        -4.70571264329264   -2.99912454501360    3.65219926370433
H        -5.52242072193810   -3.59255674598467    1.40038915437716
H        -4.38358522967190    0.35453896059441   -2.52041044577371
H        -6.39264262625178   -0.21027099687980   -1.19274532211470
H        -6.40089391490824    0.13561598397435    1.23326808429959
H        -2.39810902023593    0.84305478252712    3.12381903975067
H        -2.51921163626899    1.33578704353256    5.51793625826360
H        -4.65815606349463    2.02369353986037    6.53983282194985
H        -6.66965394944475    2.24703243975614    5.12543840420573
H        -6.54875115863799    1.77556603054394    2.72679845989955
H        -2.39827186361133    1.62515251055749    1.02956474215976
H         0.67315356219576    1.96125658115916   -1.65821673970005
H        -0.91341136994156    0.29269475396428   -4.93080022791917
H         3.73563959525566    1.56213338368508    0.81297639489286
H         4.93040936199419    5.75495211219706    0.17961915614638
H         6.22697708332775    6.74126389822499    2.01915276453616
H         7.38408936432161    5.28462318239899    3.64011203040920
H         7.24108871657443    2.83225635474042    3.40406759029202
H         5.96159721688766    1.84342409899021    1.55245437436676
H         5.28809838356930    4.53844620527721   -1.83740642655120
H         4.07114497148299    3.49355551831440   -3.70159940341177
H         2.71783907394396    1.48469595203173   -3.33166534211282
