90
 energy: -136.818361489037 gnorm: 0.000848231056 xtb: 6.3.3 (4ae9cef)
C        -1.91471930623210    2.58701527172693    0.63012759852728
C        -2.24711892025216    3.35812456097470    1.70635298013054
C        -1.78257174848522    3.03421336990323    2.99779897802818
C        -2.12262099551132    3.79469772263588    4.13560689995005
C        -1.65622820004220    3.44548453088917    5.37210532514119
C        -0.82797675853295    2.32203828710620    5.52861767358634
C        -0.47941428599143    1.56466070035112    4.44589817818964
C        -0.94667846877328    1.89841080591855    3.15740341856971
C        -0.61775342928660    1.12366011526575    2.02854201244814
C        -1.10242520838062    1.44881923238572    0.78817803057975
C        -0.77361425770515    0.59749892546646   -0.41262579101724
C         0.71771213845507    0.67781579510281   -0.78824377291023
C         0.97309945826654    0.84299357593654   -2.26660313269873
C         1.93584907342414    1.71688385849253   -2.69867992032022
C         2.22070044944450    1.87045159454879   -4.07009372472899
C         3.20958768877138    2.76419482097127   -4.53176260679585
C         3.46137056842419    2.89430073406154   -5.86855409315491
C         2.73607582673982    2.13935360897472   -6.80436499963622
C         1.77343878587019    1.26284547220970   -6.38822158885033
C         1.49181673180552    1.10329589347310   -5.01581577898994
C         0.51349015323685    0.20260659066366   -4.54562225774701
C         0.26338238069199    0.07209164986990   -3.20956690757034
N         1.27075794483455   -0.58761165000006   -0.31559928038349
C         2.58349581468419   -0.67899040325770    0.02257113330359
C         3.03785830097375   -2.04884626932130    0.40369578992228
C         3.48257758311419   -2.33437048172798    1.69564791607874
C         3.49248927660985   -1.26296939553706    2.75814744496886
C         4.91685156387830   -0.71521348667641    2.88637472245918
C         2.96392540781368   -1.75709496436678    4.10408864051435
C         3.94526865334664   -3.61948784700328    1.95477345606850
C         3.97298205121338   -4.58665659846421    0.96654831167880
C         3.54610312106896   -4.28622109416177   -0.31591009882707
C         3.08010559903993   -3.01612841654481   -0.59478942978701
O         3.32086940057598    0.28397928365762   -0.04141943598620
C         0.25082812989264   -1.59474129245339   -0.21417251655058
C         0.35000787035004   -2.47004207681668    1.05167672811507
O         0.48988522713239   -3.75235863898764    0.75193424335287
O         0.35733823400398   -2.02456133809579    2.16703161501299
N        -0.97759848011986   -0.82059075479571   -0.15723924235427
C        -2.08002959476037   -1.39624180411804    0.37695039615994
C        -3.27109410561678   -0.50612231281073    0.49957754284902
C        -3.60866991987865   -0.07026229651580    1.77540385914329
C        -4.67181734694371    0.79243421344437    1.95635205946721
C        -5.41103546498120    1.20251181902819    0.85993292383792
C        -5.10236169502459    0.73120647834966   -0.40268757158918
C        -4.03011613818480   -0.12927163544822   -0.60767308667469
C        -3.74910813859351   -0.71629261145068   -1.97122396564578
C        -4.78237305841676   -1.81048128399676   -2.25804662774375
C        -3.74968554833741    0.33313758835328   -3.08397390610621
O        -2.05379269369395   -2.56202942888864    0.73171999737162
H        -2.28457147297657    2.83642496135629   -0.35426628527179
H        -2.87932662748315    4.22560700103039    1.58248326959284
H        -2.75957541428419    4.65914198685442    4.01086100792378
H        -1.92226582526872    4.03128421939543    6.23999354154947
H        -0.47197319056598    2.06178293720334    6.51472011415933
H         0.15156898999975    0.69445422724965    4.55479539680990
H        -0.00273597013479    0.24651081731810    2.16823400286808
H        -1.39468365544464    0.91457837877805   -1.25825261315769
H         1.22347319453787    1.48488294800389   -0.24701291638704
H         2.50179621155749    2.29227265261627   -1.98112179924307
H         3.76458283050674    3.34053579011286   -3.80592169368505
H         4.22011556470818    3.57974309615714   -6.21663091258847
H         2.94772014121103    2.25712245305138   -7.85709950515495
H         1.21449157084864    0.67809300817618   -7.10518770752052
H        -0.03594598523555   -0.38900156714205   -5.26433361318181
H        -0.48656967751805   -0.62775298669801   -2.87111778228885
H         2.84471140972080   -0.44507484052655    2.42791776813220
H         4.95734434277645    0.04777704010002    3.66080957834284
H         5.61205311599286   -1.51230102760949    3.14361193049581
H         5.22626506106683   -0.27076859943818    1.94321804086308
H         2.92086235570080   -0.92580605988037    4.80488341956800
H         1.96107560426764   -2.15968762274852    3.98444740791090
H         3.60697018247680   -2.52270816913428    4.53116207178283
H         4.29703359078160   -3.86997868713838    2.94385416108559
H         4.33941204852493   -5.57692729789730    1.19520503053793
H         3.57915242771314   -5.03452367188721   -1.09316961345358
H         2.75837600820110   -2.76099700482411   -1.59485851420392
H         0.23956154247441   -2.27538743063757   -1.08405781043436
H         0.48096419227515   -4.29407811779828    1.55666580547386
H        -3.02075071810562   -0.40239280917261    2.61767055948792
H        -4.91921562316202    1.14357675577151    2.94646768443514
H        -6.24192991293403    1.88019635991011    0.99042130697901
H        -5.70965449004247    1.03580822462915   -1.24150162499976
H        -2.76414965149403   -1.19392974082134   -1.94590975702807
H        -5.78683999299339   -1.39364872769282   -2.26759256918903
H        -4.73494442209506   -2.57895702030732   -1.48984367130136
H        -4.58739038931090   -2.27130615456090   -3.22395648158276
H        -3.40178952567148   -0.11262062902721   -4.01330200067775
H        -3.09280174853239    1.16592109325232   -2.83914437518577
H        -4.74948076198444    0.72399679560041   -3.25330899087788
