120
 energy: -168.477229809009 gnorm: 0.000217662593 xtb: 6.3.3 (4ae9cef)
C        -1.58078834141212    4.96583184634944    1.00541622914329
C        -1.52290560262258    5.43224293078906    2.28736782027154
C        -1.05401306302274    4.61340984454444    3.33574190703291
C        -0.97962907909845    5.05901392825235    4.67142502091687
C        -0.51779512413981    4.23355620141171    5.65840538994305
C        -0.11353094319307    2.92331989605759    5.35716367344951
C        -0.17758026507936    2.46134468667627    4.07298010239511
C        -0.64284999902991    3.29036941496140    3.03185434500210
C        -0.70959182868467    2.84187381434634    1.69913028933579
C        -1.17213748523607    3.65479393360836    0.69796436030428
C        -1.20637837796840    3.18016359981474   -0.73537778928818
C         0.20349917864045    3.25561264266029   -1.35051529535612
C         0.28284320724703    3.50150452428555   -2.83773102457495
C         1.50229996556162    3.85855587682742   -3.35840747581320
C         1.67871603445954    4.06706742479734   -4.73897079716464
C         2.92320431770325    4.44422785819637   -5.28736787277793
C         3.05808617413944    4.64920480834333   -6.63128193113174
C         1.95768909222913    4.48554296092048   -7.48902459389645
C         0.74033261455020    4.11767539462580   -6.98912897409566
C         0.56717706601875    3.89962329045234   -5.60612256674973
C        -0.67210628026147    3.52401724192932   -5.04957531737355
C        -0.81413646715151    3.32896533656932   -3.70347751085666
N         0.74285368284492    1.93126137224793   -1.03687313416519
C         1.86921697497251    1.81823836377208   -0.26795574974588
C         2.18825333176868    0.47501184701878    0.28355069109139
C         2.06680332209535   -0.69498937393631   -0.45286241410766
C         2.35599356134175   -1.92541280106978    0.12381990411673
C         2.14478459250497   -3.18877368604939   -0.69802072653812
C         2.37386416336010   -4.46853153804178    0.11112606344506
C         3.12489892871286   -3.17914101134657   -1.87907795191803
C         0.70058068870635   -3.21370558668799   -1.22306947761740
C         2.82858328135489   -1.94595068232363    1.43112826983542
C         3.01509043699832   -0.78358770102429    2.17287336640053
C         3.61314080982506   -0.79188614694866    3.57169582093642
C         3.86306725636902   -2.20601547838703    4.10344977560001
C         4.95650309651814   -0.05016902108237    3.51669570386069
C         2.67076899957368   -0.07630738372043    4.54844086355420
C         2.67117450314022    0.42645127066970    1.58582732114290
O         2.56550534015765    2.78956085973854   -0.04668989818324
C        -0.33859749682222    0.99953200907375   -1.18411502520140
C        -0.47560362805758    0.53294520890038   -2.65033348789272
O         0.71065545438148    0.36130255281202   -3.23249635727965
O        -1.51756291204455    0.31899034098602   -3.19962162556420
N        -1.51043861355302    1.75609234642145   -0.80218268054663
C        -2.73367425624113    1.25821492310246   -0.47512896951059
C        -2.75909406280141   -0.22550335099873   -0.28215696966242
C        -2.27419241797244   -0.72424372495920    0.91675127261362
C        -2.29593037721591   -2.09001230728058    1.17704131270224
C        -1.80197330853136   -2.59978906408119    2.52303700133143
C        -0.39949207666476   -2.04704807994760    2.81040056761630
C        -2.77822272100550   -2.11229222145993    3.60325708252826
C        -1.72848081683260   -4.12831067767196    2.58657318076756
C        -2.81046402193271   -2.92553655271517    0.19624652633485
C        -3.31772818216786   -2.44539645067906   -1.00941709748053
C        -3.88495962644510   -3.43302382796265   -2.01793445017281
C        -4.39926856463229   -2.74344806010504   -3.28380461457157
C        -2.78589574885303   -4.42365028409840   -2.42697350332293
C        -5.05517423275905   -4.18933400913937   -1.37332758045354
C        -3.29504921386662   -1.07709078052659   -1.23581211376807
O        -3.68831636732415    1.98215798714335   -0.29416522884998
H        -1.94554130001763    5.59881190940389    0.20968476934610
H        -1.84049855179220    6.43911203888722    2.51740018056249
H        -1.29434048447802    6.06725757931875    4.90024048133678
H        -0.46149300331731    4.58250083171606    6.67917184874881
H         0.24756298417445    2.28355437608302    6.14930161712589
H         0.12888215737380    1.45268166305998    3.83414892977595
H        -0.38419291448403    1.83269766974236    1.48682015828776
H        -1.94641275219008    3.75887542175490   -1.29354303666589
H         0.82618737442756    3.99084757860444   -0.82979884309357
H         2.34861728443906    3.98156397394604   -2.69775011252646
H         3.76460393896797    4.56951557788303   -4.62135902493576
H         4.01204523553174    4.94069786237604   -7.04576481026654
H         2.08350516433821    4.65486519497739   -8.54844643871673
H        -0.10964865409619    3.99200908793652   -7.64482874193943
H        -1.51908411167211    3.39130351290843   -5.70730437802532
H        -1.77665674534786    3.03560422274355   -3.31366343598782
H         1.78396095415537   -0.63312009741769   -1.49011498877307
H         2.17029279117428   -5.33413867775384   -0.51596438154198
H         3.40388151807269   -4.54072350466680    0.45191394831890
H         1.70897248001484   -4.51261630923210    0.97103189082573
H         2.98238960390238   -4.06627055048120   -2.49256547841559
H         4.15054659235036   -3.17056049890729   -1.51642536077778
H         2.97876588760310   -2.30204959839919   -2.50384725252099
H         0.50470957270452   -2.38831527147900   -1.90243124828025
H        -0.01112096252099   -3.14712087391957   -0.40226664504596
H         0.51733031130705   -4.14149921749973   -1.76059659465675
H         3.07126747430569   -2.89205490102841    1.87953724661002
H         2.93794935097295   -2.77632120486475    4.15068501697903
H         4.27224761463867   -2.14550918718153    5.10981051361008
H         4.58164198392144   -2.73883747623234    3.48507315351832
H         5.63260557258337   -0.54582012294569    2.82300062338314
H         4.82368649242304    0.97609707110828    3.18607155750031
H         5.41920217482016   -0.03775632710721    4.50123461483626
H         3.08620432329858   -0.10583611193775    5.55358234103150
H         1.70021135219090   -0.56773473732548    4.56449256163154
H         2.53010173132078    0.96528265117879    4.27497294137957
H         2.78054909666968    1.36048494406861    2.11490266684118
H        -0.20705171567034    0.10223836224448   -0.56232843830465
H         0.60571336046970    0.11025329697292   -4.16515306590212
H        -1.90489984875884   -0.02829688556429    1.65528944264202
H        -0.40498436198459   -0.96399484118619    2.89403183357216
H         0.29289720606326   -2.32038262642132    2.01710338970583
H        -0.02616066045008   -2.45348138576556    3.74851173345721
H        -2.46165082659757   -2.46252592974071    4.58369787037739
H        -2.82654416142006   -1.02664861579093    3.62429864200075
H        -3.77835489062848   -2.49203527610328    3.40581789052413
H        -1.32368067734980   -4.43244961435014    3.54988860795153
H        -1.07820282175552   -4.52184828773513    1.80775632711477
H        -2.71496780886855   -4.57435315550541    2.48689035723652
H        -2.83457048563840   -3.98755956893720    0.37284602996818
H        -3.60383914638768   -2.19076494682618   -3.77773229102928
H        -5.21349002107207   -2.06160003768661   -3.05174565452070
H        -4.77465401168421   -3.49249156555249   -3.97852717343648
H        -1.95286594410075   -3.88964522076853   -2.87890198899562
H        -2.41182578823981   -4.98050049944726   -1.57220436687247
H        -3.17520794628351   -5.13536635156861   -3.15199241091049
H        -5.50222825631802   -4.87176095064244   -2.09314275236432
H        -4.73022483686630   -4.76864465326823   -0.51334578164094
H        -5.81758395198505   -3.48723323999013   -1.04310739023219
H        -3.67658151489361   -0.64690924188529   -2.14472775593619
