64
 energy: -119.538306443778 gnorm: 0.000535484834 xtb: 6.3.3 (4ae9cef)
C         2.45291940761142   -2.32599785903648   -0.55017349415848
C         2.98845937235356   -3.50234918249948   -0.05459482634959
C         2.35015919895769   -4.17676767884918    0.97237280391733
C         1.16774107075003   -3.67875720687002    1.49400989860829
C         0.63209448690187   -2.50303784461216    0.99999080188130
C         1.27577992457835   -1.81384001671527   -0.02174618246527
C         0.71562028155224   -0.50658505328266   -0.52556962913809
C        -0.72630484580572   -0.63877440269572   -1.06819847063208
C        -0.81619161478668   -0.21725284096865   -2.51532586121262
C        -0.61611096954157   -1.17941801522323   -3.49790895223795
C        -0.65194274229908   -0.83093463045185   -4.83540063581856
C        -0.89291479559842    0.48241972467494   -5.20276264283672
C        -1.09230745154201    1.44244015836737   -4.22650470826009
C        -1.04710640357986    1.09847619992935   -2.88622120982962
N        -1.53482382076223    0.15076956654242   -0.15009793439238
C        -2.88526171253893    0.08513245520591   -0.19703189196288
C        -3.60599556309230    0.69943136991986    0.97434426309337
C        -4.23496069462459    1.94052382608595    0.91212450549347
N        -4.03983022162116    2.77924024526964   -0.23403461589427
O        -3.06812946261538    2.55081460724996   -0.93009025659988
O        -4.82695315662235    3.67518054453849   -0.42963772222786
C        -5.00918639864482    2.41516989837097    1.96310068135211
C        -5.15415690149368    1.64527263553878    3.10017814524088
C        -4.53333246849586    0.40794304303966    3.17819430059073
C        -3.77435078749469   -0.06585864971197    2.12071469491575
O        -3.48585118650665   -0.52567239682733   -1.05310992360300
C        -0.75735148514186    0.84579182859309    0.84139419980351
C        -0.92915086861746    2.38151497408776    0.77981943934379
O        -0.20349374942611    2.92708663840425   -0.18224404579354
O        -1.66160609117578    2.98745086348407    1.51013725195163
N         0.59932302814774    0.47137752065266    0.54089102771004
C         1.59659957601841    1.03738042101071    1.24976457766794
C         2.98100538687935    0.56916746558621    0.89903823801080
C         3.65274764897323    1.15955256963276   -0.16296301006822
C         4.96028363727867    0.80299602048690   -0.44994043245677
C         5.62052236751155   -0.13851261984708    0.32653706908456
C         4.97116395704892   -0.72621741507767    1.39406183849097
C         3.65686124160795   -0.37168220413002    1.67386835320292
N         2.98135534837179   -1.01781513221258    2.76763867049779
O         3.64149325053780   -1.71191736029103    3.50829151180663
O         1.78383842701863   -0.84748665552880    2.86761962290177
O         1.40071329427535    1.92377237549181    2.05478779152123
H         2.95523335302594   -1.79683960322081   -1.34794699617396
H         3.90830638924622   -3.88800038594632   -0.46790775581937
H         2.77350551521887   -5.08785621305625    1.36650687075950
H         0.66800047597788   -4.20022671085471    2.29559982683764
H        -0.28006153813495   -2.10872797919688    1.42046015754915
H         1.37102892205759   -0.11003256532257   -1.31207040486144
H        -1.06590766215812   -1.68124754776053   -1.00085057933290
H        -0.43683927175950   -2.20626646423273   -3.21129942316981
H        -0.50046721014424   -1.58699698720033   -5.59169307945306
H        -0.93117120763395    0.75363703937235   -6.24748770285509
H        -1.28939261351241    2.46633871723514   -4.50652275099379
H        -1.21973809083845    1.84984803753195   -2.13495005359490
H        -5.46980984112169    3.38688025826345    1.87275904389021
H        -5.74469247119498    2.00919067559670    3.92618767477911
H        -4.64193176824208   -0.19471044741230    4.06699007794013
H        -3.31315694548124   -1.04059283778767    2.17958007616551
H        -1.02932038348904    0.54838523978395    1.87001510084429
H        -0.34412539129329    3.88769996565937   -0.21251013905963
H         3.14571856565930    1.90438100878417   -0.75772475298490
H         5.46859568963250    1.26603397023701   -1.28199952690246
H         6.63968646184954   -0.41011075840791    0.10034165996183
H         5.45517250799295   -1.46081619940387    2.01920043532212
