72
 energy: -117.795971650135 gnorm: 0.000306814378 xtb: 6.3.3 (4ae9cef)
C        -3.42513332239566   -3.33364214024017   -1.04464276142673
C        -3.63571555801553   -2.65983434120607   -2.21361650682127
C        -2.99072060681175   -1.43529096811919   -2.43654960807435
C        -2.15245009450223   -0.91081840778801   -1.49274613830170
C        -1.91064193523983   -1.57571615475663   -0.27215761002373
C        -2.56588448535521   -2.81867180095415   -0.05121633394527
C        -2.34730803945421   -3.52019171271764    1.15105350086768
C        -1.51083991709172   -3.01539110835346    2.10330327448445
C        -0.86989602732921   -1.78981160955181    1.89270255039510
C        -1.05605670973675   -1.06531642785740    0.74083713437408
C        -0.26125835595329    0.20565442181750    0.59848974944218
C         0.92553285660802    0.07106406285660   -0.38316370260145
C         2.10561643822923   -0.54086475956539    0.32467203386741
C         2.92282293278663    0.26344390313906    1.07889954570592
C         4.00355361674906   -0.26017786107018    1.79707918087785
C         4.24651502895207   -1.60311868258524    1.77952051844106
C         3.41279981580078   -2.47210934624264    1.04707493915890
C         2.32093319659276   -1.94481756192019    0.30207489314160
C         1.50331207246237   -2.85699395543214   -0.40155492351074
C         1.74605120379469   -4.20154619230353   -0.36658179667345
C         2.82506921059663   -4.71522488548140    0.36603264807166
C         3.64122052731300   -3.86446908939543    1.05402163119938
N         1.14331664686666    1.45391277777277   -0.79269442781473
C         2.22625364723341    1.79294041913143   -1.56069823665543
C         2.32493783379454    3.24193782871993   -1.90334981987684
C         2.24519563146993    4.22393235049507   -0.92170712686199
C         2.38576229544543    5.55704366000325   -1.26266932976793
C         2.60237735219825    5.91809267598642   -2.58224223594893
C         2.70240399855624    4.94174723826546   -3.55936929219303
C         2.57615679527835    3.60682367539974   -3.22035375833096
O         3.06601747255272    0.98182218699329   -1.88251719531613
C        -0.12173531594561    2.14119663940492   -0.80214074824931
C        -0.79548147471043    2.18080250454068   -2.19175542592735
O         0.02865158426653    1.79086941467544   -3.16625230196991
O        -1.92386612244473    2.53075668173938   -2.38357738796970
N        -0.95452119930165    1.40094524646695    0.12895348286045
C        -1.89885731790250    2.06602131774950    0.86325817990322
C        -2.63516853157946    1.17047275990032    1.80793166617415
C        -2.26695567866862    1.09365773130037    3.14373657040784
C        -2.94038971153035    0.23626016999758    3.99626097268261
C        -3.98462219187920   -0.53764648750912    3.52045609993784
C        -4.36960354112415   -0.44160168969998    2.19391314728639
C        -3.69908193702907    0.41172298710620    1.33701218055842
O        -2.11488113875801    3.24734652904055    0.72049895559350
H        -3.91701612338710   -4.27765250586709   -0.85844970626796
H        -4.29693611852075   -3.06000829346376   -2.96772932618287
H        -3.16546800768380   -0.90154687237468   -3.35896272345352
H        -1.68106454550742    0.03870133115149   -1.67604423758212
H        -2.85146982552152   -4.46379032004295    1.30040229494210
H        -1.33533223753146   -3.55071490549695    3.02376825459498
H        -0.21036098879907   -1.41109505483977    2.66014001353478
H         0.16293299268390    0.43144110303755    1.58989646890771
H         0.64662269988297   -0.52485985507503   -1.25932407882252
H         2.74212311808148    1.32797417689124    1.11223457748227
H         4.63590613141736    0.40765130096617    2.36296861635852
H         5.07580395340886   -2.02181581548762    2.33114338629709
H         0.66289055671850   -2.50194703490013   -0.97620526071510
H         1.10224456932636   -4.87783677909850   -0.90959368623450
H         3.00417412391708   -5.78018503882751    0.37850484140127
H         4.47874021814836   -4.24427968993497    1.62174738796757
H         2.09695190740706    3.94554483451867    0.11214187916061
H         2.32638497868743    6.31586929084655   -0.49675300570910
H         2.70320069910756    6.96021338431147   -2.84631298294967
H         2.88606145688490    5.22134739578962   -4.58617793017576
H         2.66586170209859    2.83301894499008   -3.96737843486371
H        -0.05382814342057    3.19094382733023   -0.47364667989615
H        -0.40740436534409    1.85381459791635   -4.03192083611525
H        -1.45493804142001    1.70300688991800    3.51361557140525
H        -2.64857129475765    0.17268981590924    5.03411561607965
H        -4.50441870498026   -1.21038287464585    4.18626258611325
H        -5.19183593526721   -1.03524274210804    1.82340571847082
H        -3.99468772042627    0.49392888883603    0.30192648907405
