72
 energy: -111.277874587519 gnorm: 0.000604864751 xtb: 6.3.3 (4ae9cef)
O         2.95296208447461    1.11081863512499    2.19042654750243
C         2.51918243874689    0.11864747337026    1.64848540338583
C         3.32270433685885   -1.09898589093706    1.32136528865308
C         3.53473734079233   -2.09784722586506    2.26095755901005
C         4.27834445250188   -3.21176682809974    1.91147451565451
C         4.80899854369139   -3.32608013746415    0.63966002374858
C         4.61319271230479   -2.32681331414189   -0.30587483173668
C         5.23470348577345   -2.42081063186877   -1.66855890235757
C         6.61955775741217   -1.77011349486100   -1.66466833725152
C         3.86583796623511   -1.21267862850400    0.04821197460488
N         1.20088651752934    0.01262885757452    1.29871980920525
C         0.58759160227463   -1.11382524490479    0.62993041055652
C         0.18906750645987   -2.23121366361221    1.63130518624249
O         0.31598059553568   -1.90751933538310    2.91726048506388
O        -0.20432681679003   -3.29888563260154    1.27051513514040
N        -0.58224686868520   -0.55712156637015   -0.01542329494516
C        -0.70756400307293   -0.70455893806707   -1.37796603470323
C        -1.84126466651711    0.02064127966745   -2.00594135058485
C        -3.11022938180327    0.03610076493200   -1.43919962449331
C        -4.15867750784786    0.69434830846200   -2.06593343813525
C        -5.53152982275026    0.66050665199290   -1.45887694467069
C        -6.25370478515121   -0.62963851115887   -1.85139499893637
C        -3.92063945006294    1.33807659475986   -3.27399147650090
C        -2.66229366703862    1.31551666039444   -3.85132395898445
C        -1.62336890799381    0.65190956678260   -3.22692758223741
O         0.05976617914561   -1.40067969958686   -2.00900079215568
C        -1.01216710676738    0.61282827277877    0.72793710358324
C        -2.03664781864954    0.31248707372489    1.80108024804105
C        -2.59364952004374   -0.94895715947103    1.95902734995918
C        -3.53768506839834   -1.17705122709295    2.94646033987261
C        -3.93964188752913   -0.14799002113474    3.77842941023625
C        -3.40185927300361    1.11797715017856    3.61326497769946
C        -2.45915018949778    1.34735515075657    2.62859653447951
C         0.31589593836899    1.17516709935048    1.30673990107305
C         0.86431145606274    2.29131331278867    0.45173883324673
C         0.87264540385893    3.59539814416008    0.92373255085937
C         1.35700069572182    4.62197879208200    0.13313832741753
C         1.83723481893265    4.35354490587517   -1.13674898723863
C         1.83248152324917    3.05397763396988   -1.61291239331967
C         1.34859235950397    2.02688285586715   -0.82379438908102
H         3.12588175624384   -2.00645906361540    3.25615976074632
H         4.44043067096964   -3.99465203189840    2.63672570627547
H         5.38367049111377   -4.20166749743980    0.37467752927677
H         4.60017107620246   -1.91664976868170   -2.39966592060376
H         5.32801431631005   -3.46812768947831   -1.96107430915320
H         6.54527341536077   -0.72344204787851   -1.37823688719694
H         7.07035213665999   -1.82980771825685   -2.65236194793044
H         7.27162268864013   -2.27262135360059   -0.95374835364137
H         3.70514561846747   -0.42173244526249   -0.67148697411191
H         1.22293755745036   -1.57540847427510   -0.14162079827492
H         0.65929371095143   -1.00286597342889    3.02263100083411
H        -3.29242308194336   -0.48105297866988   -0.50928931971396
H        -6.11143747963935    1.51883576614491   -1.80302215709312
H        -5.45367867844905    0.71226365345274   -0.37040171476583
H        -7.24746871363744   -0.65775663867436   -1.41127604034177
H        -6.34977584574222   -0.69555454626638   -2.93274795428584
H        -5.69489153026855   -1.49557003099245   -1.50454273080021
H        -4.72932944229131    1.85647508640991   -3.76871962477956
H        -2.49311805220629    1.81335215425416   -4.79444491085724
H        -0.63990406171919    0.61677115077914   -3.66978707863223
H        -1.44335856046257    1.34305977467547    0.03357677279000
H        -2.29767544912841   -1.75966606143577    1.31080730743730
H        -3.95720552743857   -2.16485017754676    3.06030537666067
H        -4.67418366978704   -0.32799052755350    4.54861199359771
H        -3.71964515568848    1.92975913300549    4.25042118085734
H        -2.05354901648671    2.33965460035363    2.49105377360484
H         0.18856851638002    1.53420012214967    2.33411225085444
H         0.50972751971193    3.80631324709366    1.91914125341392
H         1.36491888070305    5.63290998229779    0.51267477471237
H         2.21987717678738    5.15392202821438   -1.75227851843744
H         2.21024751317710    2.83691485499056   -2.60105503673508
H         1.35647824592747    1.01587543765917   -1.20498598159348
