92
 energy: -147.569363264672 gnorm: 0.000341840793 xtb: 6.3.3 (4ae9cef)
C        -3.36059722990667   -0.13584298259679   -2.87667913751763
C        -3.12472607599485   -1.47988288711664   -2.92685050099986
C        -2.27935257019163   -2.07120370184973   -1.97802849996641
C        -1.70222247843295   -1.32031397182776   -0.99200342757003
C        -1.93569676998546    0.06969641308992   -0.89546460439419
C        -2.77345472650833    0.66898835552530   -1.87728713420154
C        -3.00713708139391    2.05835071616463   -1.84910836960474
C        -2.41617252471636    2.83990913143749   -0.89992235286446
C        -1.60419386809757    2.25487304955084    0.07813412005595
C        -1.38489293534245    0.90042044298936    0.11921786237797
C        -0.53284221030708    0.31585640348821    1.21673071825767
C         0.97259877919320    0.53916113356084    0.91743353260095
C         1.52653342923867   -0.54443236745925    0.02785466271859
C         1.82076293454765   -0.20889868720418   -1.27039023244012
C         2.32842327503523   -1.14719330263607   -2.17555939139803
C         2.54762080329380   -2.43123581032391   -1.77118374963641
C         2.23937414123303   -2.83038695328236   -0.45506091626018
C         1.70212975070946   -1.88680441894325    0.46492355513156
C         1.38906794093816   -2.34230640155295    1.76576061555420
C         1.61024586311131   -3.63987671309028    2.13725032450287
C         2.15638500553975   -4.55980582017430    1.23211799427182
C         2.45940590330842   -4.15983453091907   -0.03789933236679
N         1.56992117475962    0.65932740588715    2.23847976671830
C         2.84239171997110    0.30600677899734    2.60400407727385
C         3.79729139805975    0.19521551993216    1.46534133537428
C         4.53498895855987   -0.96890810787155    1.28703829946431
C         5.39160165407191   -1.08870440595074    0.21137237520786
C         5.54659532906684   -0.04114687426786   -0.69334838472224
C         6.42230072336010   -0.17813387813398   -1.86573378696639
C         7.67669224262404   -0.77274325760763   -1.75784129030810
C         8.49685529642385   -0.88720043938304   -2.86513164129252
C         8.07334705263293   -0.41893135890189   -4.09773768978901
C         6.82408957278057    0.16689015944100   -4.21742068769177
C         6.00614612176575    0.29000281614480   -3.10998052387671
C         4.85426687758613    1.14686253522696   -0.46830389182802
C         3.98908705138423    1.26607729700962    0.59984135919289
O         3.14617196399361    0.13154019489011    3.76151105391908
C         0.56726365691221    0.94881260681683    3.24875608818922
C         0.84144615832654    2.34173670813416    3.87779722253915
O         0.68397736904078    3.34907450075849    3.00493249125300
O         1.22799960763148    2.50698221105816    4.98757700252162
N        -0.68976273109915    0.93509356837657    2.52304049841116
C        -1.82615073116870    1.33144411456260    3.17038774746395
C        -3.09917626426357    1.16702718970089    2.41549645575227
C        -3.89287977291376    2.29096507359606    2.21380984098650
C        -5.03389805103689    2.20654890302539    1.44276295982091
C        -5.41700395778805    0.99476815097020    0.87181959251726
C        -6.58719802567923    0.91988628025458   -0.01355724454166
C        -7.75681904452227    1.61616655329796    0.28136149260656
C        -8.84660718089355    1.54976241317521   -0.56681823953532
C        -8.78222058286165    0.79491756782270   -1.72614174527158
C        -7.62280217860321    0.10058815776624   -2.02944950353123
C        -6.53466755207797    0.15791600682793   -1.17882176122061
C        -4.65934817742080   -0.14186972966929    1.14569358943807
C        -3.51346758898615   -0.05956014020053    1.91077775441697
O        -1.75464249553286    1.84342164556732    4.26784034335686
H        -3.99954928580082    0.33976289686015   -3.60690932554960
H        -3.57797276072411   -2.09048163922671   -3.69344844939903
H        -2.08207106637921   -3.13165655232893   -2.02917786638297
H        -1.04450694457014   -1.81452716388584   -0.29465590111842
H        -3.65727002247474    2.49068528949849   -2.59506630610860
H        -2.57831254665707    3.90662166624957   -0.88164052204173
H        -1.18052617395881    2.89707152447571    0.83825108122448
H        -0.72336444546375   -0.75801564142218    1.30863880949611
H         1.07665319659309    1.49640996816757    0.38108219746611
H         1.66807467474910    0.80728980084912   -1.60524024639945
H         2.55295119946876   -0.84155420856382   -3.18589655588260
H         2.95830798515530   -3.16233060326697   -2.45182893834647
H         0.97669008092448   -1.66654199372289    2.49593282057332
H         1.36734480254449   -3.95932128370691    3.13963793433951
H         2.33191492167634   -5.57788630813075    1.54575065436647
H         2.87656995267335   -4.85744157787888   -0.74982466740592
H         4.41076467965826   -1.78431478418663    1.98370312548330
H         5.93003546575147   -2.01175910718890    0.05569282479278
H         8.01764903454400   -1.12346508044481   -0.79476272768558
H         9.47218459093886   -1.34081709628126   -2.76620125066752
H         8.71482668854652   -0.50887520839875   -4.96178735230543
H         6.48753536460445    0.53013944870659   -5.17773622758176
H         5.02672796038919    0.73579695663485   -3.20760608846306
H         5.00721485643120    1.98519786344204   -1.13203265042481
H         3.46800549787082    2.19698097975240    0.77158762947560
H         0.59733181791247    0.21350786189250    4.06905962439129
H         0.31846955916154    3.03762520294433    2.16354117738934
H        -3.59053434915036    3.23236677760381    2.64763626567487
H        -5.61955712792646    3.09392298237337    1.25468168242303
H        -7.81819224882789    2.19317667472831    1.19240459615318
H        -9.75036131428484    2.08869449469549   -0.32272924265902
H        -9.63286002214431    0.74690937830173   -2.38967684661287
H        -7.56643147457548   -0.48821777059555   -2.93357241532202
H        -5.62580364263080   -0.37125437221487   -1.42678513616145
H        -4.97318102940304   -1.09867918923699    0.75543441155662
H        -2.94580897219247   -0.95409528630510    2.12031914380194
