54
 energy: -103.282250314432 gnorm: 0.000526501610 xtb: 6.3.3 (4ae9cef)
C         2.05374798276811   -1.32610510259451    1.37715244558397
C         3.10281156883410   -1.88417080210714    2.08369554944955
C         3.33347345144745   -3.24789408332561    2.02108316151393
C         2.51146008633450   -4.05017479855980    1.24917997635763
C         1.46285534413757   -3.49206801729762    0.54002883822683
C         1.22732425722283   -2.12675035268306    0.59864660093097
C         0.06956911774401   -1.51854555852251   -0.15502618074537
C        -0.99448358456771   -0.93499795014346    0.80319039218137
C        -2.41414378702153   -1.23166321843894    0.36397787117109
C        -2.78516304971322   -2.55751882009749    0.16476581274126
C        -4.06916241521288   -2.87363611589248   -0.23747697183821
C        -5.00067302086846   -1.86846866234823   -0.43922016773300
C        -4.64455525800854   -0.55065325004656   -0.21860883140029
C        -3.35871339104641   -0.23194732720463    0.18559586413705
N        -0.66398440607057    0.47829836407085    0.82300047643542
C        -0.90716752686754    1.26918170151150    1.90389734337935
C        -0.47702461403710    2.68290744195623    1.74879261664009
C        -1.28463087777235    3.78288367155776    1.78996464632068
O        -0.56903110110682    4.90506098404372    1.63339421412428
C         0.70960802517741    4.53205834615647    1.50640238112664
Br        1.98592791617130    5.86632649576098    1.26514479863415
C         0.84634905383296    3.17837161199845    1.56743602367510
O        -1.43333121727335    0.83844159829359    2.90414101441251
C        -0.08731378081589    0.86433840483099   -0.44004441710664
C        -1.21127865186281    1.41188118674628   -1.37364280016346
O        -1.58765641976674    0.59824458585902   -2.34964525092416
O        -1.68729843697039    2.49436508019730   -1.19461699588189
N         0.49336037418948   -0.35408763168869   -0.94613113842030
C         1.59874405972585   -0.46051389061999   -1.74761737186914
C         2.18959020061905    0.79313330551163   -2.26498114424564
C         3.54030587929984    0.92639405075868   -2.45887866219344
O         3.83817952980345    2.13590043150663   -2.94112128929817
C         2.67610769372814    2.78985060663565   -3.08614936490770
Br        2.74066431537660    4.52554622312718   -3.75497060772928
C         1.61811401864611    2.02983427004505   -2.68737751251715
O         2.07136410491541   -1.54328513960000   -2.01857060254766
H         1.87743805738396   -0.26101307361228    1.43380515051091
H         3.74068470106885   -1.25309599041730    2.68443008606342
H         4.15427629626410   -3.68261821656516    2.57118148857388
H         2.68963435161798   -5.11345016801044    1.19386929330458
H         0.83070427461249   -4.11901747961402   -0.07119575606098
H        -0.35876003385303   -2.27083442093816   -0.82560814204135
H        -0.85970278273748   -1.32246023270932    1.82020216977135
H        -2.06726728834709   -3.34589211486281    0.34065647140448
H        -4.34391486131444   -3.90669170488251   -0.38900000256860
H        -6.00281841198866   -2.11428416301962   -0.75572262069731
H        -5.36716651268333    0.23857540952968   -0.35787725382752
H        -3.10674181424541    0.80070285246385    0.37353188538998
H        -2.34526835161134    3.87880427001939    1.89967801038059
H         1.76546265908972    2.62920502521304    1.53131327530147
H         0.65139154505384    1.66445880434844   -0.31111302038263
H        -1.08446428735519   -0.23523437561137   -2.34167260520102
H         4.34202501777486    0.24080453736119   -2.27284449812579
H         0.59054000027991    2.32150240190872   -2.73904764931170
