80
 energy: -132.286538527619 gnorm: 0.000967440151 xtb: 6.3.3 (4ae9cef)
C        -1.78260158813840   -1.37140092975612    0.93798771814520
O        -1.27119528429707   -0.90119537062201    2.10839858273467
C        -1.48735475069157   -1.64345858733145    3.28474705491289
C        -2.49940498293721   -2.55602207101372    0.81279359742357
C        -2.97841332395584   -2.95610977554624   -0.42208819212335
C        -2.74111934429487   -2.19244656046509   -1.54928380156116
C        -2.03354882906000   -1.01020514433648   -1.42967495983279
C        -1.56652688756478   -0.58003523820711   -0.19842693225481
C        -0.82458921489684    0.72681685322442   -0.08383908924737
C         0.54068106050627    0.66684596057572   -0.81161921495200
C         1.69641526581482    0.64294186670682    0.15726945142206
C         2.05441859206373    1.77388410135783    0.87148618102951
C         3.12893859556075    1.74761092733095    1.74363537333020
C         3.85005665595315    0.58004139485023    1.90197987643010
C         3.49969893232759   -0.56314398674717    1.20426736344244
C         2.41822957432921   -0.54632873755587    0.33271874237740
O         1.99655884596732   -1.62613751626623   -0.38967352623359
C         2.75638333271006   -2.80919274502104   -0.33255741749741
N         0.52994934281200    1.82128780493844   -1.69241476568105
C         1.48276544945594    2.15067958670555   -2.60541469615620
C         2.72196456131912    1.32106665151672   -2.49003448309055
C         2.79257864470374    0.05616492683652   -3.10196690107422
C         3.90074506851029   -0.72528142364322   -2.93664677723947
C         4.97828654496273   -0.29122696084731   -2.13707659121368
C         6.10849394431287   -1.10080802344007   -1.89441274027917
C         7.12855057630606   -0.65617394604800   -1.10152690024766
C         7.07143658704745    0.62187242406885   -0.52161251330159
C         5.99490454146595    1.43273861945298   -0.74349625268233
C         4.92071488196942    0.99924399268750   -1.54846349567525
C         3.77924567647450    1.79601164167508   -1.75902989351842
O         1.31200112462850    3.03815011806949   -3.41287102004300
C        -0.68511706140942    2.58177195572132   -1.61894236279977
C        -0.42843820514983    4.01249335790096   -1.04828645255615
O        -1.46090786008699    4.82393308769614   -1.13818132940641
O         0.61847071286276    4.31648283420425   -0.55399855701796
N        -1.54044216290378    1.81676781134646   -0.73361754239490
C        -2.85193489130622    2.09760884677248   -0.62352324916993
C        -3.61229336675432    1.26335456164764    0.34707806726086
C        -4.57397217654949    0.38375166616496   -0.07574889208168
C        -5.25181928191298   -0.43417018566392    0.84851769627029
C        -6.19367996962733   -1.40107198624807    0.43969193808728
C        -6.81627687231739   -2.19953815159170    1.35700845781196
C        -6.53199204060166   -2.06360090898891    2.72542956542296
C        -5.62997325497022   -1.13059474373796    3.15368201153189
C        -4.96521262860854   -0.29486660725788    2.23195820110709
C        -4.02362528578551    0.67288001354677    2.64050615238060
C        -3.35117858269885    1.42583932883454    1.72242475763353
O        -3.36345569795233    3.01054225011788   -1.26703969273227
H        -1.02247957058752   -2.63237975643428    3.22543316207715
H        -1.01303010549311   -1.07135272542491    4.08042130549541
H        -2.55508454893089   -1.75183969375043    3.49832826559988
H        -2.69641633331868   -3.17241241656335    1.67496676651052
H        -3.53984426332433   -3.87504163183112   -0.49709722605890
H        -3.10697273767285   -2.51126570519917   -2.51285816863276
H        -1.85478285151665   -0.39779248829264   -2.30179574782193
H        -0.66822965551010    0.96055812161221    0.97491087123221
H         0.59102936978991   -0.24780263506124   -1.41546973997790
H         1.51098296300313    2.69266962927989    0.71265798497449
H         3.40304549421834    2.63787660454461    2.28766747149431
H         4.69738685577826    0.54917418817797    2.57049214685054
H         4.08157773827330   -1.46022538926719    1.34257676391328
H         2.27943119635322   -3.49524711499502   -1.03096469997700
H         2.74145018541922   -3.24824214858915    0.67011381057540
H         3.79128761252730   -2.63396713286347   -0.64110328821560
H         1.96461385360506   -0.28716689674269   -3.70531176975969
H         3.95886743790456   -1.69655420059788   -3.40781812918129
H         6.15158460261878   -2.08191018000493   -2.34790035432295
H         7.98895891031230   -1.28311472659984   -0.91690429501853
H         7.88877041639650    0.95578016870390    0.10081094819209
H         5.94118618654911    2.41581819762313   -0.29936207617637
H         3.72711777978450    2.77670465680227   -1.31051374744591
H        -1.14480799373083    2.69660489572371   -2.61660631443944
H        -2.29126641226400    4.34942258150868   -1.41076400552190
H        -4.79457493068192    0.28473732907499   -1.12816093182339
H        -6.40729932585575   -1.50039096479142   -0.61442353554275
H        -7.53390044563756   -2.94090905786134    1.03805143068278
H        -7.03553883386164   -2.70171112448519    3.43676338114809
H        -5.41232666880313   -1.01877601393026    4.20695306959706
H        -3.83239659050458    0.80197965415429    3.69626409705549
H        -2.62475030256570    2.15900299258913    2.04052900782392
