84
 energy: -130.492696337671 gnorm: 0.000802852252 xtb: 6.3.3 (4ae9cef)
C        -1.06175890487429    3.35499893429438   -0.48567424319109
C        -1.69998253617570    4.53105931249507   -0.21993383264957
C        -3.03688062640646    4.54305466022359    0.23157332221606
C        -3.72974205845283    5.73964147835854    0.50584598664406
C        -5.02962930142248    5.71223959480957    0.92811665212330
C        -5.69447142128173    4.48744599199125    1.09532575413677
C        -5.04820962209816    3.31034779950514    0.83997137178640
C        -3.70757392726581    3.30482419217094    0.40293520579677
C        -3.01764997796990    2.10579484385980    0.12889987203797
C        -1.72085527099300    2.12112574264966   -0.30617703458779
C        -0.94818174262074    0.86096603386176   -0.60541184268233
C         0.24426532016203    0.67244601412138    0.38767179390035
C         1.55701743241926    1.03940238969504   -0.24193706494718
C         2.07144891139465    0.32225536913753   -1.29061536195437
C         3.33271972961104    0.63347932015705   -1.83366458127706
C         3.91430711803946   -0.13833563746275   -2.86059411418798
C         5.15963224777363    0.16026699722318   -3.33707920309470
C         5.87564046947032    1.25084884418223   -2.81851283534810
C         5.33286310757418    2.02614107522661   -1.83262753004952
C         4.05489719693699    1.73817260077029   -1.31226237440974
C         3.47228727847520    2.50266034872352   -0.28112132768372
C         2.26266180307732    2.15584845990216    0.24683320239592
N         0.11006592233405   -0.71739166140670    0.80820263889497
C         1.02158453678805   -1.71439075751569    0.99683795198989
C         2.44915042907857   -1.32308343031161    1.10124848903042
C         2.87354588662718   -0.32470160385655    1.96768302306022
C         4.20877919317716    0.03982795385958    2.03525935060277
C         4.64279025191849    1.13028389875939    2.96488202263584
C         5.13925890743472   -0.60343077762681    1.21195712365586
C         6.57767449257373   -0.18989767601918    1.21980761524981
C         4.71366215308786   -1.63292980534840    0.38462572321866
C         3.38535101426255   -2.00600135230066    0.33576695088090
O         0.65506636355238   -2.87358131055630    1.07852036517330
C        -1.28952161105026   -1.05252333244326    0.72165105058880
C        -2.04184307853570   -0.54704060682079    1.96243677635097
O        -3.32812794195686   -0.88549443055505    1.91097218788647
O        -1.55008036865870    0.07091419187242    2.86405100386357
N        -1.73074105290081   -0.35340270141940   -0.45769374024905
C        -2.55895978602452   -0.79161156807955   -1.44622416872603
C        -3.23128648413130   -2.09521540390710   -1.17116882981365
C        -4.60127464966532   -2.12039819436590   -0.95787412168060
C        -5.23180751855802   -3.32416120393499   -0.70402682172883
C        -4.52212036794350   -4.51608270196624   -0.66623835531123
C        -5.22674571102045   -5.80658695765176   -0.38216756487967
C        -3.14351957997767   -4.49692843390057   -0.90295808910597
C        -2.34418776274098   -5.76245595960633   -0.87936056186708
C        -2.51605441489243   -3.28646845966706   -1.15618678860249
O        -2.74502104201988   -0.13243259086370   -2.44730347370498
H        -0.04207309149216    3.35305161922054   -0.84316742410361
H        -1.19019089174084    5.47361525291331   -0.35988327432269
H        -3.21425645585332    6.68010110807081    0.37162250657327
H        -5.55623934290508    6.63274019625804    1.13354509145822
H        -6.72258493928462    4.48452025473763    1.42707864518226
H        -5.55747766676906    2.36483910261635    0.96397151397500
H        -3.54645206070731    1.17163996876824    0.25019245662084
H        -0.58922355623797    0.91282454426232   -1.64169895516618
H         0.06934328556745    1.31033155159645    1.26527046638053
H         1.52948252574668   -0.52312701909500   -1.69169115942601
H         3.35991510631851   -0.97735843969209   -3.25547210947681
H         5.60363113800458   -0.44037179320390   -4.11737030840273
H         6.85875493772915    1.47222055203804   -3.20761558028654
H         5.87813791682901    2.86994761779810   -1.43314038310635
H         4.00832601004408    3.36122755393938    0.09785538040892
H         1.83561665689424    2.73173778254753    1.05526802931238
H         2.15016764788956    0.16964191560421    2.60013414891934
H         5.39163995047466    0.76329490092096    3.66585965833962
H         5.08766148355444    1.95158868877732    2.40414797039480
H         3.79736549535586    1.51330707638644    3.52983667138527
H         7.00871952138256   -0.30480389548118    2.21382675153764
H         7.15363964390682   -0.78928840183815    0.51968989985380
H         6.67112405912336    0.85774302996984    0.93548765119944
H         5.43394881646718   -2.14476722189930   -0.23722985169780
H         3.06040392222752   -2.80799868382168   -0.30922815643044
H        -1.42170976162281   -2.13848782249842    0.65478316768163
H        -3.80179415627441   -0.56253201517788    2.69564426112137
H        -5.16485463525799   -1.20037969911506   -0.99003865781998
H        -6.29884072647130   -3.33824183675493   -0.53256186107403
H        -4.81305614983742   -6.28146739691741    0.50685851715588
H        -6.28873894056390   -5.63941976600699   -0.22281029597036
H        -5.10529865303215   -6.50049458699132   -1.21311984916811
H        -1.28750603414584   -5.55187563926664   -1.01969140120206
H        -2.46882832995427   -6.27623472317273    0.07288700706299
H        -2.67409682202078   -6.43941382594688   -1.66722825758581
H        -1.45309690989603   -3.27760844338439   -1.35627384375766
