66
 energy: -123.427060934373 gnorm: 0.000280677153 xtb: 6.3.3 (4ae9cef)
C         1.42920660370669    5.09534186532131    0.11110067381220
C         0.51890716096554    5.33211971512552    1.10030813777166
C        -0.07239057117971    4.25336781990617    1.77114794791601
C         0.23376247984520    2.96615039413594    1.42849883622787
C         1.14358006934194    2.67958090565419    0.38656593524196
C         1.76723637084849    3.77890773788495   -0.26675122371947
C         2.70796124146217    3.54359977461299   -1.29039893588883
C         3.01583741920404    2.26922009263937   -1.66760402622661
C         2.37472114419217    1.18190269795564   -1.05954083948087
C         1.45810120192414    1.36452539479633   -0.05599583652977
C         0.70737062606499    0.17934564991361    0.50398387843017
C        -0.60185652415935   -0.06249866400496   -0.28363986254488
C        -1.79526416199638    0.47675053654255    0.46337733944735
C        -2.29033711552355   -0.25112722405847    1.51698562555217
C        -3.36079607096264    0.21467523244710    2.28836135964015
C        -3.91503347330118    1.43232213967030    2.01764676502426
C        -3.41890740374463    2.22768176153537    0.96513195433756
C        -2.34771464082773    1.74954899079374    0.15959556118360
C        -1.87642976215105    2.58925111614395   -0.87386489263514
C        -2.41798807350610    3.82540468220434   -1.08702302203831
C        -3.46915209087894    4.29374528950362   -0.28676411505314
C        -3.96113721543057    3.50558194035315    0.71285081088121
N        -0.65410873794020   -1.51301848847784   -0.43287963985213
C        -1.75960680693652   -2.08930502021835   -0.98611998071528
C        -1.81288692567856   -3.55702478067159   -1.07258379306436
C        -2.78017954611090   -4.30089302011140   -1.69975421969135
C        -2.43006158310225   -5.65653702182638   -1.52788850100035
C        -1.27407842006499   -5.63947112816658   -0.80189829275964
Cl       -0.28958881586906   -6.90150980281395   -0.23481932146812
O        -0.89052335241238   -4.38733297879430   -0.51628473071141
O        -2.70328560266107   -1.42048686808109   -1.36277607583643
C         0.66993905336979   -2.07236809597026   -0.33152933583207
C         1.31852070673555   -2.32093263987570   -1.71700461461290
O         0.51287192517876   -2.98370167078976   -2.53839605067081
O         2.42435853353466   -1.96575624226989   -2.01031694733210
N         1.41587905974709   -1.09014800810164    0.40473579788893
C         2.58837695684459   -1.25045593897908    1.07411318271303
C         3.28065778919543   -2.54539445346152    0.97939278177524
C         4.51456940701693   -2.84607135186132    1.49870977195571
C         4.78755207949632   -4.18789223719090    1.15941362047319
C         3.69611026515892   -4.60837631992831    0.45626701074938
Cl        3.32963591625055   -6.10587054489013   -0.25427140020795
O         2.77867140788862   -3.63778719340426    0.33989658978141
O         3.06338998326575   -0.34811285802363    1.73747276981884
H         1.90885356473616    5.91583314744060   -0.40381367353162
H         0.25897344120111    6.34271886737577    1.37866343863512
H        -0.77791809236842    4.44397628984110    2.56629273904879
H        -0.23642786037549    2.16414091787476    1.97413760335930
H         3.17789341828090    4.39130144819980   -1.76824856782636
H         3.74137062564744    2.08290531095498   -2.44525351973840
H         2.62297903832630    0.18680863271251   -1.39383035563134
H         0.49672760716026    0.34725509167763    1.56625134317430
H        -0.53168137288625    0.38964534740523   -1.27958462796386
H        -1.85200861222540   -1.20955985841859    1.75732501308431
H        -3.73348435559887   -0.39377685860708    3.09894934586306
H        -4.73588111149382    1.80908716358844    2.61071870126678
H        -1.06519600237359    2.26772490856319   -1.50746693583732
H        -2.03302766605924    4.45212404422597   -1.87780406853680
H        -3.88378908603075    5.27415355299191   -0.46903193476197
H        -4.77419644789264    3.85023133970507    1.33611108654187
H        -3.63068338410818   -3.90646748113887   -2.21545804606519
H        -2.95062277594906   -6.51952889963611   -1.88532339145879
H         0.64586389475651   -3.03680838047242    0.19121934900791
H         0.94127464586210   -3.13472626623009   -3.39789874587113
H         5.13601254101309   -2.17293211706761    2.05158166881994
H         5.65907848358350   -4.76105838616609    1.39501388563446
