62
 energy: -116.113932299776 gnorm: 0.000511441383 xtb: 6.3.3 (4ae9cef)
C        -1.72465748357516   -2.63968315315547    0.05234142155670
O        -0.80265235837115   -3.07138809217717    0.95693638816752
C        -0.73228544556938   -4.44386358873610    1.25088489132138
C        -2.63957037415892   -3.45736987447359   -0.59722569784659
C        -3.54063638428847   -2.91521274099874   -1.49937674589369
C        -3.53988341502810   -1.56019209719994   -1.76314743625692
C        -2.62426513565828   -0.74145202925410   -1.12245792489784
C        -1.72003561406651   -1.26249496529168   -0.21704926181144
C        -0.68585972915293   -0.41755666504866    0.47806568577027
C         0.66160366874874   -0.43701616891937   -0.27435184739767
C         1.63916662781845   -1.40380428332636    0.33011486856703
C         2.23235299223613   -1.13819493772869    1.55113086458810
C         3.11977436810476   -2.03546413331019    2.11919165064342
C         3.40880231459433   -3.21295366058076    1.45765063798746
C         2.81527865299540   -3.50084992624878    0.23999783635089
C         1.92298260210109   -2.60424046996736   -0.33466940935353
O         1.27009385861872   -2.81512488837508   -1.51210852726378
C         1.58005704161182   -3.96602844122101   -2.25760663974203
N         1.11838881017623    0.94753779163001   -0.17752670893919
C         2.32444825538753    1.30376987832488   -0.70751945812286
C         2.67021594043604    2.74213717654928   -0.56662480548154
C         2.76010265845136    3.49877112024852    0.56969168448779
Br        2.33405868343801    2.85404395254845    2.29653746386538
C         3.23719562807803    4.80963423252225    0.35120694936438
C         3.51122734718008    5.02243479551986   -0.96146911906671
S         3.21000000583068    3.63841671572486   -1.93501282422214
O         3.09699247157666    0.50599684391868   -1.18598130748217
C        -0.02760296896311    1.81203838590918   -0.08321710986189
C        -0.44607025939654    2.29414310298477   -1.49600851276832
O        -1.72723316206324    2.63049764197457   -1.54806474469819
O         0.31891240180534    2.38563658513693   -2.41262656866965
N        -1.02542445037531    0.99726512708049    0.55207344520927
C        -2.09709120986477    1.40246168336859    1.27280721224199
C        -2.34279966932368    2.87158883501301    1.32421101178835
C        -3.44104964425722    3.51414617234370    0.83114855205243
Br       -4.74044175302367    2.65886986498448   -0.22891788303727
C        -3.48364894007138    4.89674501523270    1.12803304308129
C        -2.41698693136376    5.28167833380201    1.86935068622918
S        -1.34570482480384    3.97756329091649    2.20582474744103
O        -2.84264974132366    0.62549263990727    1.82606230264234
H        -0.52484339096025   -5.03678524009048    0.35426513031551
H        -1.65357520615035   -4.80435016629775    1.71952436888588
H         0.09622411612916   -4.54832415280723    1.95011033046537
H        -2.66453934842707   -4.51803122898229   -0.40311801054921
H        -4.24853447351596   -3.56421693761387   -1.99310008409340
H        -4.24767957891047   -1.13634145740901   -2.45833679369839
H        -2.63259859007523    0.31916810751661   -1.32039233492984
H        -0.55793054493201   -0.79944923070703    1.49839256945324
H         0.50470342339431   -0.70094268872979   -1.32819663659086
H         2.00135915660043   -0.21448625474360    2.06052401521279
H         3.57984824159709   -1.81362096325796    3.06961955394290
H         4.10099556793242   -3.92204467482855    1.88752428508769
H         3.05787568999399   -4.42893617385065   -0.25332425810397
H         2.63707702546217   -3.98977603425593   -2.53970296814654
H         0.96785714394380   -3.90627863104634   -3.15645912915239
H         1.32829630264544   -4.88186949153731   -1.71186673038457
H         3.36419709475497    5.53159021439498    1.13677458613793
H         3.87799944647017    5.92063731778875   -1.41617687636946
H         0.18188734405615    2.71693828726155    0.50463673253037
H        -1.98893742938512    2.92666366149439   -2.43687400077613
H        -4.27624749474148    5.54561518810664    0.80417230243891
H        -2.18853633037872    6.25685847997141    2.24970913775199
