26
 energy: -55.606353493390 gnorm: 0.000706084063 xtb: 6.3.3 (4ae9cef)
O        -3.59519414484890   -1.75397195677854   -0.73665318294653
S        -3.53960146374255   -0.70412056560734    0.21560524832725
O        -2.48498797949354    0.40597788038945   -0.18278816365105
C        -1.11515686480856    0.13141843984544   -0.20762283705219
C        -0.26852845322561    1.14966141411824   -0.62168238383333
C         1.09386196654435    0.92005550969983   -0.66151347215369
C         1.62311391313503   -0.31380425878794   -0.29929232879137
C         3.11188234917551   -0.53003379106550   -0.31274600594836
C         3.71895077117601    0.06496099621507    0.92583611607330
C         4.63958727991475    1.00934324910236    0.92422406256628
C         0.75571156372004   -1.31487914470674    0.11703280036811
C        -0.61259228685413   -1.10192459145491    0.16462291270695
C        -4.99785126343331    0.43327743180490   -0.08027181763009
F        -5.00980333958130    0.83767776652734   -1.34284463918999
F        -6.13499574898592   -0.20153287297908    0.17488375852015
F        -4.91753131049449    1.49650672747398    0.70755806185978
O        -3.49155121033003   -1.01577286391212    1.59862593516265
H        -0.68569261606417    2.10244838952423   -0.90456312868789
H         1.75655141067984    1.71127663416499   -0.97868603729816
H         3.55231662417356   -0.06517898241228   -1.19604990278060
H         3.32598291469154   -1.60103673799877   -0.33635666445329
H         3.33473441104434   -0.32947289741735    1.85704588952183
H         5.04765373220134    1.40879953714293    1.83676332220734
H         5.03379919222964    1.41813891204051    0.00799911508254
H         1.14740293102028   -2.27862834782556    0.40652126620872
H        -1.28806437784391   -1.87918587710314    0.48506607581184
