28
 energy: -41.958031761626 gnorm: 0.000931055705 xtb: 6.3.3 (4ae9cef)
C        -4.45486050011663    0.94075237713587    0.07351359312985
C        -3.18630176439502    0.15697846239983    0.19804185366898
C        -1.95951908665009    0.75312944214382   -0.04339867394334
C        -0.79090802864968   -0.01108520923471    0.05869178412219
N         0.46213601528765    0.53383179066989   -0.17163819588721
C         0.71839252311014    1.84657267764223   -0.51793972146925
C         2.04683673944402    2.05492528189332   -0.67218191916567
C         2.69730936827302    0.81254551865803   -0.41282263612313
C         1.68301946793206   -0.12274746318317   -0.10161523496058
C         2.00104481773268   -1.43964164712400    0.20171246215043
C         3.33380762091714   -1.80000830475705    0.18844466506308
C         4.33987054369308   -0.88332405969043   -0.11747424574574
C         4.03418144685783    0.42498253958285   -0.41957051233422
N        -0.82845217922592   -1.29924481568715    0.38468389133658
C        -1.99821857923648   -1.86438417118301    0.61398377745731
C        -3.20400815061687   -1.19448257697412    0.53657046441137
H        -5.23375972132300    0.51770802843065    0.70329454690656
H        -4.80331287083505    0.91290849419812   -0.95943393094360
H        -4.29909113894661    1.98145402282573    0.34817672392158
H        -1.92880112154270    1.79791065557977   -0.30536999611547
H        -0.07328437757860    2.55897269507963   -0.63466769714760
H         2.52132672114632    2.97847590010026   -0.93893756945971
H         1.22935996275515   -2.15117281500760    0.43818084057444
H         3.60491178985374   -2.81927097666891    0.42118497076076
H         5.37013006450846   -1.20840916915545   -0.11594738389502
H         4.80755339641176    1.14032927676105   -0.65731678859365
H        -1.95532598820625   -2.91404459267924    0.87452161988398
H        -4.13403697060019   -1.70366136175614    0.73432631239699
