60
 energy: -100.834676775426 gnorm: 0.000178186487 xtb: 6.3.3 (4ae9cef)
C        -1.99136542365562    3.35913038198017    1.48887085835640
C        -2.52524818323228    3.98565990483948    2.59963818429967
C        -2.12240775556820    3.60918375111160    3.87016806449547
C        -1.18499243208770    2.60300933551514    4.02065647617808
C        -0.65034626450428    1.97068612367292    2.90996715297556
C        -1.04830646893262    2.34605987163395    1.63315917636926
C        -0.56670086173159    1.64941754003801    0.37880309783670
C         0.76243417409335    0.87715398385715    0.51572620759054
C         1.59545670071646    0.97830930593310   -0.73987857348047
C         2.78527929924387    1.69357459552014   -0.73387991609121
C         3.56590451791733    1.76359891496657   -1.87372567319104
C         3.16063940796348    1.12479057809377   -3.03260837721443
C         1.96501741692844    0.42665875127947   -3.05129109784932
C         1.18519451877205    0.35483269668077   -1.91198794318862
N         0.32876224569244   -0.49765811748088    0.75960276756357
C         1.07583666919615   -1.61310609796602    0.51395657498882
C         2.53680606089307   -1.43680749261885    0.53158714973339
C         3.41136519190551   -2.00959239346968   -0.34439592204792
C         4.76563512127273   -1.69361702193807   -0.07965925236267
C         5.90186043018930   -2.16861759992497   -0.92150782065089
C         4.88711843411088   -0.90545863818407    1.02277939727843
S         3.37396003142424   -0.52288034671139    1.74002672064282
O         0.55758110516768   -2.69129074160334    0.29295390074346
C        -1.11045836304446   -0.60363076677297    0.67898382925345
C        -1.74252283763609   -0.73489018906601    2.07627041181756
O        -3.03251702276574   -0.40486613287824    2.03933928342529
O        -1.17328664704015   -1.12191695923751    3.05442692022164
N        -1.50882957456782    0.59827472320746    0.00609742528088
C        -2.57915377487346    0.82520717617212   -0.79725712539852
C        -3.41502794212889   -0.35905052709535   -1.09222378622123
C        -3.07409641073214   -1.53991215311780   -1.68340706608417
C        -4.17325637778920   -2.41768184750005   -1.85786577299942
C        -4.05150293842638   -3.77194378451995   -2.47263018669348
C        -5.32716938203965   -1.86872516248762   -1.39018872195044
S        -5.10807162228917   -0.28646074472374   -0.75609846717488
O        -2.81976807960131    1.92879408066972   -1.24298211741942
H        -2.31553954360591    3.64001885426932    0.49837087767740
H        -3.25791135133604    4.76849792868818    2.47262898324191
H        -2.53835118653982    4.09696292491503    4.73933301374995
H        -0.86689950124881    2.29934297931292    5.00691859469205
H         0.06878626603351    1.18031885517591    3.06140599265686
H        -0.52836577440973    2.37148192208697   -0.44336962623768
H         1.34015533316957    1.25911338099009    1.36226827570834
H         3.10553038792809    2.18839304820762    0.17154707311228
H         4.49462599491329    2.31399333543983   -1.85414957914831
H         3.77281299133779    1.17318827702512   -3.92074191302613
H         1.63924288332795   -0.06538012376306   -3.95551019819169
H         0.25537230016310   -0.19445362536657   -1.93289287026394
H         3.08902176948266   -2.62522879207413   -1.16459895900343
H         5.86045067715001   -3.25045901511473   -1.03469846176361
H         6.85346949142414   -1.89558640399574   -0.47349109008523
H         5.84044456815944   -1.72314287176715   -1.91410290122992
H         5.78586407774918   -0.52745984289615    1.46867652246870
H        -1.38300432513733   -1.51918339619653    0.13410563716141
H        -3.44198588213885   -0.50379417602648    2.91420483700085
H        -2.07920738521952   -1.78366049422720   -2.01536347629069
H        -3.69771585988305   -3.68910542824180   -3.49952484353908
H        -5.01177779113168   -4.28031328520918   -2.47301309484980
H        -3.33305509023692   -4.37354667978482   -1.91752012844419
H        -6.30578501277636   -2.30623436932802   -1.38190644441965
