66
 energy: -115.349567087839 gnorm: 0.000831316353 xtb: 6.3.3 (4ae9cef)
C        -2.62136698464347    1.78666953035829   -0.71051717852634
C        -3.70243432970368    2.61385249997572   -0.46178864283288
C        -3.91961358397742    3.10824936546133    0.81239821223251
C        -3.04566938477200    2.78164898241959    1.83642347434924
C        -1.96421433663269    1.95649602307672    1.58987788365161
C        -1.75256748200669    1.44301632838128    0.31544009247821
C        -0.57336412755785    0.55268135982705    0.04026723283566
C         0.75958757324845    1.32299907358935    0.18074868695856
C         1.18190131317887    1.93675171005851   -1.12527658155761
C         0.98158627982469    3.29042032815380   -1.35243289695817
C         1.32719412568166    3.85210178391332   -2.56843869765423
C         1.87730263148821    3.06591115604392   -3.56600513425680
C         2.07614383759672    1.71370027591539   -3.34549182487805
C         1.72281720887031    1.15013448533516   -2.13342919319772
N         1.68308849539460    0.29841262478664    0.64574416185628
C         3.00501775906209    0.60233137417495    0.82602476771861
C         3.83731190448773   -0.52013301021645    1.30059382832783
C         4.74907051277600   -0.47144620056659    2.30967872004995
O         5.37066975335870   -1.64622030866412    2.50571374013939
C         4.87740570479999   -2.50411546329689    1.58331654637687
C         3.91227915689196   -1.85938099684409    0.78445507215411
C         3.31258993424340   -2.55439457077325   -0.26382834110522
C         3.66711740184767   -3.87126867326992   -0.46045297513770
C         4.60697536390900   -4.50223865648168    0.35618165830087
C         5.23286723178619   -3.82949792217676    1.38563000112036
O         3.44765738880314    1.70290439616684    0.57171863838593
C         0.97267646536807   -0.74991034442344    1.33838493495719
C         1.16971310288059   -0.65929558695846    2.86581152213850
O         0.61558064427521    0.44999517768968    3.36842032856992
O         1.86846009368759   -1.39932448705449    3.49631450683171
N        -0.41496372640741   -0.54459250592181    0.98112251916651
C        -1.33700447893272   -1.12746045606295    1.78589186360522
C        -2.74208476384610   -1.00833815474532    1.36738874195612
C        -3.79535023199437   -0.69306357834307    2.16949307817314
O        -4.95900531758830   -0.63668825560405    1.49785909074411
C        -4.67951105849012   -0.95648519018238    0.21095492143959
C        -3.30244514618651   -1.21278436409271    0.05987552924731
C        -2.81046108751138   -1.62123153610772   -1.17735077217129
C        -3.69485500443557   -1.71446785706146   -2.23008349866355
C        -5.05061513398530   -1.42190162674683   -2.07209186763781
C        -5.56838663891638   -1.04719788406889   -0.84875286277098
O        -0.97858190409283   -1.74176911635946    2.77861204297863
H        -2.45613578356708    1.39870671740883   -1.70508999257738
H        -4.37789974882550    2.86737956759185   -1.26486540192916
H        -4.76728931793678    3.74748725253190    1.00824566665386
H        -3.20812356238194    3.17070258114854    2.83059382387845
H        -1.28956382194477    1.69356243279783    2.39172008046975
H        -0.64616307839366    0.15286540408184   -0.98080915277500
H         0.66088028253432    2.11036894586111    0.94081843835423
H         0.55743693263386    3.90511456575625   -0.57199346362193
H         1.17255477700821    4.90776667426325   -2.73499524376997
H         2.15521828394335    3.50629922621493   -4.51201567262865
H         2.50892510169398    1.09659699489513   -4.11911555106934
H         1.88458828880003    0.09580051095067   -1.96155201241345
H         5.01383953094615    0.33713639702631    2.96323580829332
H         2.60001528183955   -2.06909541960199   -0.91423476640071
H         3.21031200981641   -4.43186255340039   -1.26257148487385
H         4.85241941195447   -5.53695833671428    0.17208939377801
H         5.97028874259190   -4.30380966954141    2.01246535622106
H         1.30916341721596   -1.75317489751230    1.03667724061494
H         0.76219393587689    0.48335175918647    4.32705378675035
H        -3.82236747792512   -0.46407567685853    3.21718369488474
H        -1.76933754005014   -1.87634256940229   -1.30027631029520
H        -3.33713641037463   -2.02645861343540   -3.20013336672088
H        -5.70896317830755   -1.50468351962380   -2.92343733444125
H        -6.61737423893007   -0.84174950291502   -0.71050786576293
