68
 energy: -121.193187607727 gnorm: 0.000510475298 xtb: 6.3.3 (4ae9cef)
C        -0.67690544168844   -2.70424291286704    0.84535907694592
O        -0.31994730157263   -1.83240442346741    1.83543886978140
C        -0.71108516063419   -2.11224347150501    3.15716681612969
C        -1.36581235730623   -3.89046151342991    1.06109837850317
C        -1.69646314614020   -4.70926234245132   -0.00559794350334
C        -1.34584964232919   -4.35660604171462   -1.29392725716640
C        -0.65312150102904   -3.17813110871639   -1.51198935252897
C        -0.31196623892572   -2.34614566686816   -0.46125117920664
C         0.41508453504406   -1.05261664683839   -0.72191450886448
C        -0.47066597580046    0.17380307987816   -0.41468729203570
C        -0.89233990054673    0.89532757912099   -1.66791291125065
C         0.05485035970999    1.50196086020844   -2.47700855124368
C        -0.32165392009367    2.17699811035263   -3.62449732035948
C        -1.65900683087223    2.23888322557965   -3.96821304582555
C        -2.61874311110855    1.63098126190129   -3.17744415178662
C        -2.24743722619363    0.95210138147164   -2.02280218131673
O        -3.11952857000233    0.33285194431334   -1.17953639657817
C        -4.49601866359446    0.39673715916466   -1.46329815779549
N         0.36442068954422    1.00203836029495    0.43467065827452
C         0.22459119382792    2.31337049460344    0.70249472524927
C        -1.07394699551517    2.93131128957179    0.28964687279748
C        -2.26891257493579    2.56599469154629    0.90051407153130
Cl       -2.26617941097523    1.37767801439101    2.15128316090576
C        -3.46480292421015    3.16346921711337    0.53746831824340
C        -3.46800184667904    4.13564356878550   -0.44683282356374
C        -2.28116437142579    4.53035743819330   -1.04285310185961
C        -1.08969933113413    3.94121831794727   -0.66453654755434
O         1.10844934297841    2.94190418489787    1.25800004186899
C         1.54232113334327    0.32026524520370    0.91451887067807
C         2.79106662641545    1.20891352717975    0.72757625125799
O         2.89561341197091    1.63927204955346   -0.52888368805940
O         3.61153647284659    1.40207200837700    1.57731433371927
N         1.58368058889505   -0.88737790479748    0.13333162005282
C         2.52276040227514   -1.85959361240299    0.19581431214509
C         3.60717811017031   -1.62339890430349    1.20498374646698
C         3.38335164376703   -1.90129825383681    2.54645820890377
C         4.39776623195074   -1.74078636046273    3.47247571738923
C         5.64632522243306   -1.30456669042260    3.06289770643639
C         5.88773543684738   -1.02822252310082    1.72925271964525
C         4.86680173104413   -1.19298452195124    0.80975751654397
Cl        5.13885171407553   -0.82192723717120   -0.85387825593099
O         2.48205794492469   -2.85041562410989   -0.50206878016721
H        -0.35707638300395   -1.27198362766544    3.75371632196720
H        -0.25620552899572   -3.03704660910876    3.52737381342097
H        -1.79962583731017   -2.18083615193705    3.24799664871640
H        -1.64818575722674   -4.18879529467205    2.05833796506146
H        -2.23011222283237   -5.62920019044599    0.18174803635302
H        -1.60207109886155   -4.99627107869360   -2.12405766913377
H        -0.36474241695766   -2.89871405200486   -2.51403832484166
H         0.74283655500424   -1.04178771793046   -1.76906788230575
H        -1.36321570785724   -0.14633610942860    0.13322542891851
H         1.09493422187796    1.45697922179610   -2.18975937570754
H         0.42358327766939    2.64999418389239   -4.24481442874218
H        -1.96660276424346    2.76282250631706   -4.86070719423882
H        -3.65474495646176    1.69265853082092   -3.46936137104306
H        -4.73428804696997   -0.09796236004655   -2.40982886246808
H        -4.85071728824123    1.43189625964159   -1.48881582195457
H        -4.98553050958590   -0.13399711262910   -0.64833973692686
H        -4.37915114395810    2.86673340115733    1.02754403599127
H        -4.40029810845749    4.59663536268669   -0.73710214182979
H        -2.28418937998297    5.30084410377146   -1.79798867673389
H        -0.15701886226292    4.24570259457559   -1.11294384096829
H         1.46048760822842    0.10978484945404    1.99472436036608
H         3.69327000953180    2.18335712030813   -0.62938873866215
H         2.40731402616728   -2.24681510437006    2.85322150480863
H         4.21356095038918   -1.95331381534148    4.51460904629415
H         6.43804171987935   -1.17378441279874    3.78452933876696
H         6.85456129510810   -0.68103274658396    1.40080001801755
