62
 energy: -108.954943716675 gnorm: 0.000433348702 xtb: 6.3.3 (4ae9cef)
C        -1.38429707484921   -0.57444131073876   -2.86523388025893
O        -2.45903899056648   -0.86730364165209   -2.09009013324447
C        -3.74284320214008   -0.85420547575426   -2.66025210281743
C        -1.44733489332523   -0.24533736827470   -4.21309626641621
C        -0.28610721094492    0.04471925996846   -4.91160013799858
C         0.93902408046746    0.00939902498205   -4.27637955126528
C         1.00818564448093   -0.31523286762356   -2.92986113759348
C        -0.13714750434037   -0.61081957468648   -2.21246612729872
C        -0.15890902754915   -0.93045219462438   -0.73767546538684
C         1.20128391768643   -0.94188689510544   -0.02732027557887
C         1.10042742711366   -1.74339227767391    1.24804876966937
C         0.95180080460424   -1.15692778051760    2.48993866081022
C         0.82093605174171   -1.93195029376438    3.63103441314676
C         0.83837147384694   -3.30789351052451    3.52454996338061
C         0.98585803105685   -3.91621224541152    2.28845169887582
C         1.11231820616923   -3.14275485397837    1.14308766058583
O         1.24719141674329   -3.63641352259921   -0.12002940899587
C         1.28458550998672   -5.03160588904498   -0.29779112505661
N         1.42278634605288    0.47512023873211    0.23813968162433
C         2.68562283658886    0.99059023661096    0.22663410274573
C         2.81946944542109    2.41002736497614    0.59908966069233
C         2.21366697259591    3.12700387069728    1.59370445851287
C         2.70056432257154    4.44500161165287    1.69103975372662
C         3.66899628816108    4.70643386049022    0.77258859200400
S         4.01871791680543    3.34822507774664   -0.21183325464104
O         3.65106934084912    0.29530436706071   -0.02086458406143
C         0.17345217152210    1.19975741859915    0.09006614783205
C         0.19383163693468    2.08798990792643   -1.17064597837317
O        -1.03927875449516    2.37694595006365   -1.57314500843249
O         1.18425042037860    2.50532128212356   -1.69859772922644
N        -0.81798293769990    0.16854921704298   -0.03115203636158
C        -1.83727723744713   -0.09036553402909    0.83930727430686
C        -2.36541289033983    1.04509478269652    1.61696120896973
C        -2.93271962946597    0.92415255210468    2.85601787874612
C        -3.43505137872286    2.14010861167649    3.35772476921590
C        -3.26687264538453    3.16835877547081    2.48534003060500
S        -2.47983762842023    2.67788614558037    1.03975059180797
O        -2.32812613245705   -1.19507991385520    0.95282708018139
H        -4.41827854224844   -1.12429804249355   -1.85021595834019
H        -3.83390046045839   -1.58683878318825   -3.46879261213273
H        -4.00605802638324    0.13988848368528   -3.03637815204971
H        -2.39528446602573   -0.21283135682954   -4.72673708226428
H        -0.34916739617362    0.30033274625604   -5.95901969676627
H         1.84280464786601    0.23921284559589   -4.81791941486872
H         1.97296310869829   -0.32148085200527   -2.44893621568906
H        -0.73592636474880   -1.84050824337723   -0.55859053854336
H         2.01043269387523   -1.34738589571665   -0.63777851207310
H         0.94954656073856   -0.07997957526709    2.57196241811327
H         0.70517604519505   -1.45937982440406    4.59439296250517
H         0.73595431998094   -3.92242350866863    4.40649439811722
H         0.99494985102624   -4.99304208808253    2.23068914765985
H         1.40695045575552   -5.18558847649924   -1.36883354056567
H         0.35310719247225   -5.50291711671457    0.03125063763363
H         2.12973325689678   -5.48305998341515    0.23119677251276
H         1.47608537253071    2.72418568277349    2.26595006836782
H         2.34572965245857    5.15972191404146    2.41208382275179
H         4.20023557399481    5.62466315727130    0.61919023019329
H        -0.03442201549216    1.85738954919013    0.94245410104382
H        -1.01850188052502    2.93978327805319   -2.36454566308233
H        -2.97050023162404   -0.01480196954346    3.37769764360903
H        -3.90535307937921    2.24253403518915    4.31891020210939
H        -3.56044939209367    4.19310861783526    2.59920478731166
