84
 energy: -123.951633159691 gnorm: 0.000996681053 xtb: 6.3.3 (4ae9cef)
C        -2.07781563231987   -3.37938416233888   -2.19633327265737
C        -2.28150359286138   -4.27000342876448   -3.23660803762819
C        -1.23491961402838   -5.04123094230921   -3.70965153160118
C         0.01487084486875   -4.93189908744518   -3.12296955693105
C         0.22015877279358   -4.04074329357993   -2.08561250071353
C        -0.82015624429006   -3.24122990491761   -1.62532194235972
C        -0.57385916302870   -2.27217001606755   -0.49281905867278
C         0.67066999080567   -1.36205644785665   -0.72427264589521
C         1.60668121263915   -1.39148926518220    0.45592483666593
C         1.19858172264687   -0.88072394681166    1.68233727554650
C         2.05266919856266   -0.90837919295644    2.76851408599238
C         3.31904314428588   -1.45429425140659    2.64365404574735
C         3.72491569946920   -1.97839026397460    1.42921652421300
C         2.87288035112065   -1.94695555052792    0.34041347433327
N         0.08503712194791   -0.04611721266562   -0.92963854918639
C         0.68642398542949    1.16688937681018   -0.81682284769691
C         2.17044324663599    1.13374490031895   -0.70184041975588
C         2.95625293662630    0.59587221822072   -1.71270272093247
C         4.33138523905245    0.59317671274224   -1.59337412697934
C         4.96753930276234    1.11454323342551   -0.46880340100673
C         6.48450244127441    1.06945788245687   -0.37974802126062
C         6.94788660634157   -0.39170960416211   -0.45911736439382
C         7.01695284504014    1.66586494150178    0.92567496664349
C         7.07585156977993    1.86917477530351   -1.54955701585525
C         4.16852924407038    1.67075324499939    0.52288386837534
C         2.79132024601507    1.69470699424116    0.40397772649550
O         0.03650952851788    2.19479237566760   -0.82504297885729
C        -1.34992789910788   -0.14813315061987   -1.05172579898169
C        -1.76925000924650   -0.30538970941023   -2.52580092406885
O        -0.72622671283856   -0.44811333521614   -3.33647597783544
O        -2.90645719394808   -0.30271496149166   -2.90621865203403
N        -1.67169913465001   -1.33720881679974   -0.30833282888323
C        -2.43602579525759   -1.40580066261526    0.83117820445830
C        -3.40869980939940   -0.30767809909945    1.04621642685017
C        -4.21873448475375    0.19950418638578    0.03731940499192
C        -5.13928368492368    1.19472971552989    0.31600306890218
C        -5.28123605692444    1.71686133851014    1.59634127314818
C        -6.27432761650657    2.81615216595158    1.93539816566906
C        -5.51059420886619    4.02090675057495    2.50329882281031
C        -7.07175030057734    3.28796555138661    0.71655879206206
C        -7.26534942819800    2.28662391839018    2.98172967287856
C        -4.47305198037912    1.18741075894933    2.60169167012300
C        -3.56118447970495    0.18708548372164    2.33880935168529
O        -2.31842297752600   -2.33902548317720    1.59996952340299
H        -2.90565594222639   -2.79608046510218   -1.82371068068557
H        -3.26451177406847   -4.36089287477938   -3.67392823188608
H        -1.39389124415161   -5.73370590045238   -4.52275852450337
H         0.83217648965751   -5.54561042107161   -3.47208205750473
H         1.19259154000643   -3.97621683442817   -1.61912331900020
H        -0.46974358850854   -2.84306006634915    0.43957591691533
H         1.19935902444304   -1.67724847392674   -1.63092451431203
H         0.21143959752764   -0.45333839716374    1.78487323479674
H         1.72846524541554   -0.50456688602708    3.71595940804821
H         3.98611822933135   -1.47439697904898    3.49259299463310
H         4.70723274399521   -2.41561690422459    1.32786507522384
H         3.19783371906294   -2.34739631013446   -0.60916752542011
H         2.48907239965927    0.19299392702069   -2.59998382365159
H         4.91556242334530    0.17237432335284   -2.39808622218770
H         8.03260846597830   -0.44412292850442   -0.39406025483489
H         6.64038543805330   -0.85737955027221   -1.39110541774955
H         6.52350448462851   -0.96106064358426    0.36461003661262
H         6.63209284186350    1.12544918289931    1.78740411605073
H         6.75037693785722    2.71633540268246    1.01390003475959
H         8.10272974422822    1.59378241895326    0.94027466748068
H         8.16207642195742    1.87210062118301   -1.48987622735537
H         6.72499827978542    2.89828982966157   -1.51549539863875
H         6.78854973861718    1.44327326140941   -2.50672312666263
H         4.60964364000791    2.10122883070998    1.40643857810527
H         2.18733049854117    2.13926613914744    1.18069442271267
H        -1.83647468592081    0.75064440852925   -0.65141337001586
H        -1.01844243280320   -0.53373602683033   -4.25901340980975
H        -4.14986474033494   -0.18927492128130   -0.96681944023989
H        -5.74816513245523    1.55617840119412   -0.49586841193728
H        -6.20314089259858    4.82890565070427    2.72955440916947
H        -4.78403416484552    4.38153842846116    1.77825513403984
H        -4.98140212421360    3.76202621650463    3.41610448325464
H        -7.75935105976344    4.07588456453609    1.01731401293029
H        -7.65796957521007    2.47576911572348    0.29318305374641
H        -6.41348791575089    3.69123739191843   -0.04930637653531
H        -6.75897059792127    1.99729964164787    3.89830806869300
H        -7.99726531134290    3.05408006732297    3.22471515055596
H        -7.79237853242861    1.41701813707762    2.59454843997543
H        -4.55591502439728    1.55444810703211    3.61338607741073
H        -2.95211339624299   -0.22179422025770    3.13156801096283
