78
 energy: -149.507572310554 gnorm: 0.000527249073 xtb: 6.3.3 (4ae9cef)
C        -3.68578943147058   -3.93423879547728    0.08280052051307
C        -4.44444002281304   -2.92307518934276   -0.43322443644043
C        -3.92716432522344   -1.62110324224421   -0.47689289728345
C        -2.67705947919222   -1.35238853223542    0.00826233779773
C        -1.87159836148673   -2.36580392207860    0.57515836918752
C        -2.39220467633066   -3.69011244575872    0.59112333001152
C        -1.61214037425069   -4.74262779099225    1.11129979387757
C        -0.36208217615827   -4.50152528739111    1.60292229736834
C         0.14367922872464   -3.19640085568809    1.61691384946442
C        -0.58222169335561   -2.13922977050076    1.12904984776247
C         0.04245682439099   -0.76759646020256    1.19505367446758
C         0.44390683923127   -0.21708169216375   -0.19008418601752
C         1.91238829740272   -0.41673738231264   -0.47686627025395
C         2.81907447733226    0.21988158500576    0.33720905673350
C         4.19509228828861    0.15065030483807    0.09387800526898
C         4.66012486436339   -0.54176454562576   -0.98733746749468
C         3.76814072288220   -1.22281951755642   -1.83971631810458
C         2.37049609011760   -1.19934267056463   -1.56999713682183
C         1.52447273320091   -1.94416825355981   -2.42113606766054
C         2.02195705131130   -2.62430009018941   -3.49739774729627
C         3.39363920179869   -2.60339976606352   -3.78625750648259
C         4.24778640981825   -1.92532368344901   -2.96541893650174
N         0.09314583648966    1.19517396511602   -0.10375610611533
C         0.64869684584635    2.23541464245848   -0.76480824805524
C         1.43730139510608    1.87598945892390   -1.98185053012405
C         0.83416550010280    1.20812224164947   -3.04064699517757
C         1.57093767179551    0.87353655455848   -4.16348016075869
C         2.91698655111614    1.18241759730759   -4.22884934321812
C         3.51010266647014    1.87006251625301   -3.17694054774550
C         4.97241378009221    2.20188064620851   -3.26680063194373
F         5.22290615540174    3.17932044503949   -4.15652235860137
F         5.49710593946332    2.60505298620456   -2.10261901138007
F         5.70583950208573    1.14549664790434   -3.66419522807313
C         2.77284956179389    2.24580495387723   -2.06652467525573
O         0.47107828801350    3.37856539817036   -0.38747808493372
C        -0.78004246534855    1.48946173272712    1.01148360000057
C        -0.21988356050661    2.65017741706742    1.86298382106787
O         1.05063274111893    2.43748220845764    2.20875638525708
O        -0.88235497424062    3.56286783441591    2.26180481349718
N        -0.85306225650692    0.24712931999370    1.74183369615214
C        -1.42196487504465    0.06460348497156    2.96404768175237
C        -2.37305884931311    1.14458392443424    3.37462333821452
C        -3.52127264619764    1.36585008822328    2.62776554715974
C        -4.41099752409969    2.35373833004331    3.02188555096041
C        -5.65859851906338    2.56265641846015    2.21162609455367
F        -6.18565307827614    3.78489152104087    2.35319143921831
F        -5.45174075381572    2.38336376686075    0.89511713147673
F        -6.63263379478554    1.69281473390074    2.55030844054835
C        -4.17063293203894    3.11648136939220    4.15595901481997
C        -3.03677969985270    2.87010723139754    4.90974680538655
C        -2.14612107462212    1.88249583785981    4.52894141048868
O        -1.19977170971006   -0.91573467549703    3.63962057527487
H        -4.06576188155030   -4.94531500490208    0.11311424578386
H        -5.43630859906903   -3.11630188000420   -0.81319969600864
H        -4.52474728679535   -0.82558452431445   -0.89830504623859
H        -2.30597228042710   -0.34292090949390   -0.05323720682788
H        -2.02533985892779   -5.74075543317249    1.11451833107822
H         0.23928234641976   -5.30566049014177    1.99893547158400
H         1.12435817113719   -3.02118187730535    2.03424720350469
H         0.92954797059060   -0.83462584267179    1.83890509687450
H        -0.17331711511757   -0.68884713270089   -0.96020350791884
H         2.46619222146878    0.81751145343967    1.16495508864949
H         4.87735186440639    0.66606213571538    0.75219055250951
H         5.71631441112891   -0.57715577715845   -1.20865999581308
H         0.46571499284879   -2.00088205846420   -2.22044305768823
H         1.35444625244014   -3.18706151975781   -4.13310311689381
H         3.76583230878973   -3.13499136669566   -4.64891175427528
H         5.30927121448676   -1.91100474726474   -3.16322828149754
H        -0.21458534990474    0.95712924336406   -2.98879739958200
H         1.09892653431419    0.35759543701111   -4.98447679459168
H         3.50785400283224    0.89731005114226   -5.08534429094458
H         3.23162069550529    2.79528293555108   -1.25963802280940
H        -1.76815053353073    1.82802642708928    0.65504900065693
H         1.38924388903271    3.19190250174574    2.71715181266734
H        -3.73193774326844    0.76431456988730    1.75565775342255
H        -4.86515033833781    3.89103178273294    4.44194717716578
H        -2.84826280842549    3.45305496951178    5.79744154689890
H        -1.26453229007601    1.68176546298833    5.11886835376179
