66
 energy: -120.834810650090 gnorm: 0.000185178214 xtb: 6.3.3 (4ae9cef)
C         1.89365202437305   -3.83583527766025   -2.70191737199794
C         1.78502207913561   -3.07149299405915   -3.82788297602366
C         1.54995606894182   -1.69419796423198   -3.71413204354278
C         1.43744536366282   -1.10495033498405   -2.48603204334465
C         1.54354439942955   -1.86257212758641   -1.29833625032814
C         1.76741503032849   -3.26231079176919   -1.41903455709790
C         1.84098497252740   -4.06076507737951   -0.25933951553177
C         1.66644031716924   -3.50824873156793    0.97664124496399
C         1.43588382478853   -2.13286099190240    1.10426526721510
C         1.40720962459186   -1.31288090919848    0.00444226430745
C         1.13118498966756    0.16090045302076    0.18676679894354
C        -0.39129799585071    0.41036348900119    0.22810048675972
C        -0.91364585067569    1.10576333721190   -1.00400350307262
C        -0.65294292445980    2.44506605130501   -1.15910046713910
C        -1.16410807603645    3.16564764932187   -2.24562226652503
C        -1.94824408219029    2.53684181234519   -3.16948811068577
C        -2.21209011152618    1.15512151926677   -3.06870990892143
C        -1.66919323683208    0.40899655698129   -1.98565391964566
C        -1.90722076854152   -0.98292861843951   -1.95601311011493
C        -2.66478644491292   -1.59145496441549   -2.91705742193479
C        -3.23145883064690   -0.84584043392649   -3.96019845544248
C        -3.00280698157699    0.49793929532014   -4.03482033043147
N        -0.58921810713229    1.20859338089906    1.42681319705522
C        -1.78124836671582    1.48412107686697    2.00115983002379
C        -2.95596969408112    1.19394896444438    1.12661479089306
C        -3.63819222359152    2.14869304224833    0.43184190560961
Br       -3.28251168238664    3.98395747107424    0.40727414611046
S        -4.92585321361391    1.48966805344672   -0.51757364387014
C        -4.56103977049629   -0.08511938253282    0.06078334989666
C        -3.50775592320864   -0.09514173936155    0.91549877185247
O        -1.85941857837981    1.95120617505436    3.11872413208735
C         0.62297872100007    1.42015327455034    2.18542750054305
C         0.41213613332522    0.89198050316207    3.62121421802313
O         0.64992222227700    1.82337151387026    4.53124084361098
O         0.11124007984933   -0.24364733383145    3.86282485908526
N         1.61995282442714    0.67907079980423    1.45796106126728
C         2.92424160226527    0.53704946076053    1.79879188280237
C         3.27879712871277    1.11007970398300    3.13395946550925
C         3.51705582065440    2.42992112161896    3.37877820425775
Br        3.38399632503537    3.83458204412785    2.14306384738262
S         3.97516624208617    2.73594962803818    5.01862460536671
C         3.85366545639878    1.05913502749579    5.37323611854366
C         3.48927135368529    0.32211691293100    4.29395162926920
O         3.73157896971605   -0.02383004835510    1.09416898128732
H         2.07235357058846   -4.89929312683199   -2.77371417122264
H         1.87779982727631   -3.51807192536923   -4.80675395299192
H         1.45745539953276   -1.09516018741516   -4.60803568525010
H         1.25061985648348   -0.04362518928018   -2.43808227093592
H         2.02469622524719   -5.11977382146690   -0.36993528664551
H         1.70308235077344   -4.12108270486641    1.86483452801066
H         1.27946439815642   -1.71970003407563    2.09057834272357
H         1.60714445626377    0.73868351787918   -0.61348221948330
H        -0.90148145728283   -0.54748735677034    0.37051900450934
H        -0.06334449822935    2.96522226135336   -0.41791534952990
H        -0.95040396875618    4.21995009664225   -2.32613410394093
H        -2.37357867203377    3.08595815620072   -3.99637486683877
H        -1.46973321024843   -1.59294656792732   -1.18129630484609
H        -2.82689816551599   -2.65831881216044   -2.87683135896140
H        -3.83572904705116   -1.34280605708919   -4.70424192698396
H        -3.41791587853791    1.08336930660635   -4.84232961859704
H        -5.15347038447837   -0.91535087375113   -0.26682075714427
H        -3.13920515172506   -0.97944504300180    1.40318837990938
H         0.85064793423954    2.49759292136674    2.24734261914497
H         0.40689514892562    1.51562754634968    5.41932458789310
H         4.06773401454449    0.71569044197031    6.36553531781617
H         3.36412354054363   -0.74519314540553    4.30336858647319
