78
 energy: -134.530165152532 gnorm: 0.000497133266 xtb: 6.3.3 (4ae9cef)
C         0.09570332268509   -2.91309983044691    5.20838827340540
C        -0.68768469018288   -3.84941304112871    4.59649782976009
C        -0.85860779275229   -3.81062959909183    3.20590708965767
C        -0.26659050283824   -2.83142526630851    2.45697925801740
C         0.52784427815138   -1.83019240531170    3.05713261932537
C         0.72456225822765   -1.89278922763674    4.46440060401043
C         1.54997887150260   -0.94055571840149    5.09722658323876
C         2.16786065616611    0.03072172910743    4.36596137419282
C         1.95899446502765    0.11152655125936    2.98212606249359
C         1.14781078644371   -0.77800784463445    2.32710992107613
C         0.87962642009500   -0.63789271491232    0.84293230043600
C        -0.53833121247136   -0.05249665391312    0.57260838579736
C        -1.46836675271352   -1.00185488132628   -0.14622255205127
C        -2.55545934496668   -1.48291779999453    0.54339857626395
C        -3.50729413833245   -2.30799579745508   -0.06673795140526
C        -3.37606222582483   -2.63749428618948   -1.38446101597683
C        -2.26231371474844   -2.19404511371342   -2.12625192050164
C        -1.27109335488216   -1.38588871854591   -1.50165734034491
C        -0.14982536999111   -1.00499525324359   -2.27151756609067
C        -0.03385707367499   -1.37008251579022   -3.58394800184689
C        -1.02983350521523   -2.13638770691114   -4.20437252381521
C        -2.11592762913587   -2.54468661866508   -3.48467702439698
N        -0.27791247463489    1.16779852767203   -0.17819759499798
C        -1.10062331648598    1.82004256699363   -1.03936786669602
C        -2.52684533657221    1.43621316999211   -0.99181829863217
C        -3.37019568608301    1.19666280996557   -2.03289669748710
C        -4.62181800015568    0.84098008399621   -1.45267466257976
C        -5.86577710649574    0.45587804104840   -1.94906993539816
C        -6.86502244881212    0.17072523500482   -1.04581103366631
C        -6.65163125463758    0.26551599003250    0.33161385925372
C        -5.43074512659250    0.64786113186990    0.84904567819129
C        -4.42168948323949    0.92735104757032   -0.05940036140384
O        -3.14926049507385    1.29569113669347    0.21079109171509
O        -0.68055335275432    2.66707055264517   -1.80504720826257
C         1.11299663133548    1.52846737549032   -0.12673355112598
C         1.40443100717179    2.59680566828392    0.94872630569136
O         0.35074015442283    2.84616668271303    1.71549954246532
O         2.47016980458937    3.13162831565681    1.06941878198259
N         1.78071828417163    0.28786565240199    0.17358632421996
C         3.07827499262337   -0.05796850242112   -0.05165039326667
C         3.89078249926397    0.94587698359039   -0.79018456074646
C         3.72062763626342    1.49968289351227   -2.02346251077575
C         4.86987725491332    2.31156490690487   -2.25269965753422
C         5.65916447214753    2.16648848132810   -1.09320536049974
C         6.86991527080404    2.82531973654917   -0.93993860901387
C         7.27949790089868    3.63305425080192   -1.98069417527250
C         6.50990365445849    3.78437062404500   -3.13733458099515
C         5.30653237945325    3.13354031023689   -3.29044669429323
O         5.06130062716898    1.32690398772014   -0.22257358158879
O         3.51834555668250   -1.12788847755993    0.30741808126881
H         0.25261252136802   -2.94029586232372    6.27722865636428
H        -1.16679043774835   -4.62706375728870    5.17269764378750
H        -1.46081676680346   -4.56577031390788    2.72242449769719
H        -0.40714933514470   -2.83815565728723    1.38840932464093
H         1.69108302159160   -1.00339270480571    6.16651595737179
H         2.81898852835605    0.74953204484274    4.84028697900058
H         2.47264460007653    0.88803845251840    2.43694579811907
H         1.00784731825251   -1.61599693048071    0.36498585844021
H        -0.99715392183585    0.21479813364260    1.53438493525395
H        -2.69243107793451   -1.20584294604083    1.57872695563838
H        -4.35229264011275   -2.65419841379032    0.50845080747175
H        -4.11949519221765   -3.24524819620190   -1.87862299906798
H         0.64326674597876   -0.43036379386850   -1.82559876671518
H         0.83483870626780   -1.06963107817036   -4.15069840776283
H        -0.92547313553634   -2.40719376707366   -5.24436781142866
H        -2.88425793198957   -3.15062241839466   -3.94310791998402
H        -3.11917110883060    1.24587262510745   -3.07197309558910
H        -6.03206013811795    0.38494350675330   -3.01252054884280
H        -7.83767905849028   -0.13223738056118   -1.40323457356261
H        -7.46214394483108    0.03294121736072    1.00560335741698
H        -5.25948977513709    0.72288974302798    1.91062310726017
H         1.42681332351093    1.96070576281695   -1.08666574366664
H         0.55189977080002    3.53401926031141    2.37157634337320
H         2.90545876340569    1.34170985119913   -2.70149200083930
H         7.45753048770961    2.70312671063752   -0.04467460205338
H         8.21717402560476    4.16221385066566   -1.90209714895673
H         6.87217773525305    4.42852660722888   -3.92472857701218
H         4.71173212103913    3.25362998467921   -4.18279233833861
