66
 energy: -104.944652410361 gnorm: 0.000608563148 xtb: 6.3.3 (4ae9cef)
C        -2.99439925694705    1.68028244887414   -0.10389614218626
C        -4.15325566840735    2.38265121630018    0.16797537307359
C        -4.36730637105502    3.62099590397011   -0.41407911682164
C        -3.41770832417468    4.15207279860471   -1.26932982854283
C        -2.26147486135440    3.44545760722878   -1.55024333571399
C        -2.04596752423997    2.20249674591573   -0.97528753315187
C        -0.77597928472297    1.44356479649245   -1.24573910855366
C         0.11394081833130    1.37502062056155    0.01036848823226
C         1.16972359552329    2.44774248329052    0.02568361470253
C         1.00886264181960    3.55769812238289    0.84258934958284
C         1.95895816150014    4.56298201536087    0.84924471191567
C         3.07935730678565    4.46507615522924    0.04244377928087
C         3.24062169925678    3.36216089540810   -0.77839373691975
C         2.28783047225864    2.35960247704667   -0.79275352374835
N         0.66186659751999    0.02326767896570   -0.02966172979988
C         1.53243013087122   -0.39506213651894    0.92934451252614
C         2.00805119180615   -1.83575662101664    0.76760948388862
C         3.12565237240305   -2.13695098947643    1.72548403864988
C         4.35292035955993   -1.50570858812191    1.56834735491693
C         5.38649809924544   -1.75482264198565    2.45191496099345
C         5.20531703629986   -2.64039223233513    3.50104478020106
C         3.98471868395501   -3.27107740917261    3.66452138473366
C         2.94876587172034   -3.01732574285382    2.78226961292370
O         1.88513370898181    0.33793670125041    1.82279511971433
C         0.04241762406643   -0.78696358024807   -1.04482494317767
C         1.02688129352339   -1.08690778797940   -2.19777246588938
O         0.95733618112791   -2.36402980710255   -2.58492322387836
O         1.74650576060840   -0.28165307441009   -2.71414894220227
N        -1.02850294477049    0.03750701841449   -1.55035007164095
C        -2.01204273300785   -0.33552867987490   -2.41643631177494
C        -2.26843228882870   -1.83361422346400   -2.51980224725870
C        -2.76049665977976   -2.34892759402194   -1.19331068396557
C        -2.13380619509751   -3.41029284106374   -0.55130919626086
C        -2.58474419953179   -3.84929152163302    0.68254646385000
C        -3.66415752603143   -3.22988646298166    1.28834972429401
C        -4.29953931390480   -2.17719459807873    0.64995026024642
C        -3.85235831116142   -1.74041816703754   -0.58381956867351
O        -2.68576481359208    0.48192781819979   -3.00137675547666
H        -2.83092186662981    0.71277783257298    0.35091033199901
H        -4.89126190400622    1.96252401604068    0.83565243122018
H        -5.27356499243500    4.16887175477605   -0.20223023226473
H        -3.57890927673913    5.11838864098570   -1.72328134601105
H        -1.52407427108734    3.85766618613307   -2.22280550994955
H        -0.22538710282055    1.91044746663203   -2.07343277325034
H        -0.50235196920290    1.47298179926902    0.91468421583155
H         0.13806593222498    3.63195890084185    1.47769310284635
H         1.82691800615660    5.42184045294803    1.49059787863024
H         3.82552230959082    5.24591858349837    0.05392503718198
H         4.11206087871967    3.28111171455895   -1.41149265591057
H         2.41535724431255    1.50520362529432   -1.43975257450872
H         2.35026585491187   -1.97687714299561   -0.26064783085476
H         1.16155739427993   -2.50468939549133    0.94520670276044
H         4.49159026592204   -0.80868582395746    0.75463560948370
H         6.33558557172796   -1.25546940420963    2.32339197749042
H         6.01269546915915   -2.83530460188795    4.19143679847578
H         3.83603149735985   -3.95955661323520    4.48361703033324
H         1.99467519149788   -3.50739451803428    2.91887981481201
H        -0.33674530091381   -1.73660340026648   -0.64234435901874
H         1.55590428290162   -2.53728634406221   -3.33153169309678
H        -1.37459794969022   -2.37077557912195   -2.83510482503369
H        -3.04143768680613   -1.96423205619797   -3.28052690612190
H        -1.29687301695508   -3.90619307032744   -1.02553991402599
H        -2.09121971148179   -4.67712305565601    1.17066910502112
H        -4.01283989233289   -3.56998027526315    2.25201883857584
H        -5.14681209791721   -1.69528226265331    1.11510903385661
H        -4.34708419035780   -0.92087923432857   -1.08475983655830
