60
 energy: -105.229157807245 gnorm: 0.000644250844 xtb: 6.3.3 (4ae9cef)
C         2.62015238932684   -3.16722787648268    0.30535520752569
C         3.54043175199835   -3.58942774076211    1.24852809773731
C         3.65009993652288   -2.92599975838612    2.45812822574905
C         2.83736140644031   -1.83646487160750    2.72238270696699
C         1.91706667090995   -1.41559723441517    1.78063612839656
C         1.80078117079549   -2.07915487821298    0.56521427952789
C         0.78428396986014   -1.62230039945828   -0.44969224198259
C        -0.67372547798339   -1.82656116890774    0.04096726445110
C        -1.57229263160854   -2.47207360094177   -0.98707591421828
C        -2.81489502049052   -1.93822402686522   -1.29941261247247
C        -3.62256039436561   -2.54851989866444   -2.24418286101877
C        -3.20246911465243   -3.70414450367790   -2.87822939298972
C        -1.97592165109662   -4.25757727131383   -2.55044170878901
C        -1.16758133639767   -3.64778772129236   -1.60876451132115
N        -1.10336230232084   -0.48252250493573    0.40243323413705
C        -1.56722906240511   -0.22824607956080    1.66665380762440
C        -1.68282594471300    1.20974444640005    2.04981416521556
C        -2.35100761267511    2.15249078875599    1.27433894012486
C        -2.43532381560908    3.46353020198356    1.71179582953962
C        -1.85600333492533    3.84799526113723    2.90912231442571
C        -1.20505199704066    2.89946480428330    3.67880751277324
I        -0.31847578469831    3.47062894262469    5.51102235953034
C        -1.12262254489155    1.58349796340801    3.26791811189160
O        -1.85727399833509   -1.12828651531968    2.42294667934542
C        -0.40584988702385    0.44890712470184   -0.44165861965481
C        -1.17327736451380    0.63880826360475   -1.77102171606728
O        -0.62484201119653   -0.03150032836390   -2.77317904476876
O        -2.14991949907062    1.32718387445072   -1.87481986763260
N         0.87521915458476   -0.17816369000580   -0.64731776156989
C         1.97529632085724    0.39718785634129   -1.19592335823233
C         1.88636935785884    1.89166496908047   -1.28753536680654
C         1.79137805786178    2.64707381348603   -0.12422199274922
C         1.69306740317414    4.02189857261858   -0.21686593902887
I         1.48648041130003    5.15688317307964    1.55490624652761
C         1.70417910376097    4.65892994189704   -1.44525411263626
C         1.82732189496148    3.90129862131681   -2.59740389163408
C         1.91822734409594    2.52168858947626   -2.52363328766688
O         2.94117366572718   -0.23835931408046   -1.55167737686690
H         2.54527347351575   -3.67867872034063   -0.64301421972673
H         4.17650408104279   -4.43563227569033    1.03562106425033
H         4.36989039969740   -3.25378666849383    3.19306201306712
H         2.92124322333918   -1.31347339014401    3.66345379761082
H         1.28430059409304   -0.56448301128296    1.99195339931882
H         0.95993006507345   -2.12550805385147   -1.40635351207956
H        -0.69574614794120   -2.43290775745236    0.95571056368410
H        -3.16268122062181   -1.04818515613598   -0.79660685579830
H        -4.58500855211768   -2.11890133887614   -2.47893881626810
H        -3.83270278994833   -4.17911198420706   -3.61487336601738
H        -1.64923405964486   -5.17006309274190   -3.02639987995016
H        -0.22128752893451   -4.09558251239253   -1.34356129267319
H        -2.80792798545440    1.86615392128117    0.33976394372677
H        -2.95435734386666    4.19542473754153    1.11226188087639
H        -1.91303241723913    4.87366142572641    3.23846054489676
H        -0.63146135514505    0.83755401410703    3.87468608163531
H        -0.33196504922367    1.43369860643202    0.03343081139893
H        -1.13654657698433    0.07505795143286   -3.59180707570246
H         1.80983895973869    2.16080834180419    0.84066104141603
H         1.62458466617498    5.73328501368415   -1.50491558139292
H         1.84929619849763    4.39431942182952   -3.55725515802125
H         2.01471114189586    1.92561570239652   -3.41799391762254
