66
 energy: -130.311568469025 gnorm: 0.000621914232 xtb: 6.3.3 (4ae9cef)
C         1.12652238852675   -4.31710822539016    1.52587783658244
C         1.50892522017268   -4.92951717360911    2.70637557631732
C         1.47176356386051   -4.22661737964365    3.89787719972329
C         1.05129321223904   -2.90727991383926    3.90639291384353
C         0.66746750011028   -2.29566434694876    2.72750017965586
C         0.70197913652264   -2.99722350221646    1.52852867293824
C         0.27011802590158   -2.32442002593064    0.25003569138585
C        -1.22395094821359   -1.92511040832050    0.26651206110874
C        -1.96608591275325   -2.35315410510327   -0.98006002059657
C        -2.69951921197245   -1.45997711910058   -1.74477206059332
C        -3.36411778232645   -1.89009683048014   -2.88010867223006
C        -3.30963743988868   -3.21955745817473   -3.25674772352355
C        -2.59948777781174   -4.12236623124676   -2.48347025881847
C        -1.93449514438674   -3.69252574452013   -1.35040622069851
N        -1.19189086074862   -0.48240808493000    0.44872207912069
C        -2.07733090965714    0.15223182113574    1.26348015888302
C        -1.84991555700725    1.63352173593599    1.36147951854758
C        -1.23734452099872    2.18818397424033    2.47881858792729
C        -1.02625737807899    3.55433237674293    2.55037476883538
C        -1.42044411250488    4.37869001120343    1.51027514137029
C        -2.04775600790552    3.82255186258728    0.40534722618634
C        -2.49615096732654    4.67775886227954   -0.74636175943580
F        -2.01781282022528    5.92631171435733   -0.69732566123359
F        -2.10405458058668    4.16544702318639   -1.92975889682723
F        -3.83431813346506    4.78254746234393   -0.81438669536459
C        -2.27557237448561    2.45587838303312    0.32949828838794
O        -2.97710741348572   -0.42509035499489    1.82739565340912
C         0.05037992480944    0.05791171295526   -0.03726823511310
C        -0.05560176388799    0.51428236201760   -1.51600389687081
O        -0.20229867321365    1.83215755962820   -1.58673059164065
O         0.00558652611074   -0.22208294451788   -2.45585745687852
N         0.96346827060685   -1.05101469644473    0.08042942177253
C         2.31006903049880   -0.98710354477670   -0.06139847727338
C         2.80593771118046    0.42050062461000   -0.25143728727242
C         2.87006961694699    0.96519717113820   -1.52450376562699
C         3.26533694101991    2.28789842684400   -1.67990476601852
C         3.22028723975553    2.87231276339827   -3.06329486775661
F         1.94883173416380    2.90050435046704   -3.52842883452744
F         3.66875998421637    4.13027154884428   -3.12888501607693
F         3.92385476712820    2.16158855185857   -3.95437229477028
C         3.62979785425787    3.05758556705267   -0.58548080368257
C         3.60354154514908    2.49081926762113    0.67774069527019
C         3.18354306683512    1.18307710594951    0.84777529237667
O         3.02809616543552   -1.95753014229027   -0.01386349943695
H         1.16868438787617   -4.86283006322562    0.59523097357210
H         1.84138212025510   -5.95658366042316    2.69464962541392
H         1.77286945930052   -4.70358501738170    4.81848861139159
H         1.02216814383189   -2.35438168049393    4.83379667499697
H         0.33858340010207   -1.26535721585152    2.73746260482231
H         0.49943223190368   -2.96770492100652   -0.60583768443768
H        -1.73376565088867   -2.35436057057142    1.13890474371937
H        -2.76198674739283   -0.42187059705098   -1.45343740454634
H        -3.92573178722330   -1.18197110336986   -3.47074186505376
H        -3.82425844642904   -3.55318554976073   -4.14514040517760
H        -2.56422938401280   -5.16484447976936   -2.76270389970227
H        -1.39290228529925   -4.40193919275199   -0.74142930545085
H        -0.92911816877695    1.54651131789995    3.29074324319060
H        -0.54981098465668    3.98100765925779    3.41887242039373
H        -1.24709618584031    5.44255263152665    1.55516010319185
H        -2.78319660615128    2.04210349227413   -0.52829157642169
H         0.36600391232686    0.92761789725110    0.55597344206943
H        -0.26259325209942    2.14884182616015   -2.50642495440989
H         2.61412951121910    0.37002041213963   -2.38836055035337
H         3.93398168528840    4.08347777366402   -0.72265069950834
H         3.90267719358452    3.07719873495908    1.53252054450461
H         3.15029931858071    0.74356729959782    1.83360515642843
