74
 energy: -128.168326432404 gnorm: 0.000394189824 xtb: 6.3.3 (4ae9cef)
C        -3.10695534186530   -1.08692518996746   -0.13219788066768
O        -2.67608868194529   -2.11549898085420    0.65199027254890
C        -3.62520797355106   -3.03532470836984    1.13707390560565
C        -4.43515953161145   -0.86546817395432   -0.47656066768044
C        -4.77870425177965    0.21114355090273   -1.27624001827657
C        -3.80879576570177    1.07602223139514   -1.74696937329908
C        -2.48565778685760    0.86528896244005   -1.40201171448700
C        -2.12372588646693   -0.19867563767292   -0.59053603436357
C        -0.67882726451710   -0.39960788893711   -0.21201985082320
C         0.19139828990645   -0.71433705126544   -1.44792748035253
C         0.64265571696621   -2.15098106840154   -1.48661957950599
C         0.12136906252220   -3.01259230855883   -2.43532672560625
C         0.51468429454492   -4.33846406722821   -2.49050722802506
C         1.45115720733951   -4.80600324779285   -1.58959861845902
C         1.98550514830534   -3.96129751257992   -0.63132083785194
C         1.58330537318012   -2.63348060975447   -0.56466499459324
O         2.04197063120635   -1.73967176282362    0.36284647526631
C         3.04431118530619   -2.15284750565800    1.25936488457922
N         1.30873979288192    0.21436427228067   -1.35907444803266
C         2.22375317818279    0.25436520611893   -2.35897431769444
C         3.36180562028976    1.17318240093979   -2.11931710808225
C         4.28621219577743    1.10205130317914   -1.13121711817320
C         5.27937219801557    2.11726538741944   -1.22261877451045
C         6.36827367625501    2.36654280643928   -0.38501924149331
C         7.20178591696936    3.42654841484989   -0.65847167386353
C         6.97318063497586    4.25213705493455   -1.75985392304733
C         5.90552089101075    4.02767579963850   -2.60352439355392
C         5.06492392261408    2.95921810181721   -2.33028279497803
S         3.66640407812139    2.46864216324264   -3.24129169949367
O         2.11744913373029   -0.42810452905053   -3.35736965812687
C         1.22367825332106    1.08685244263347   -0.21765736672676
C         1.34945305894444    2.57989233264198   -0.59614690598892
O         0.40394808007208    2.92939121429981   -1.47111692963537
O         2.24990326087204    3.29034293169349   -0.25494795403122
N        -0.08374101801240    0.80929367365329    0.33159535011744
C        -0.67702680274443    1.75761541242580    1.08633725866204
C        -1.95282892421351    1.36511121962289    1.71924149519470
C        -2.17736886846808    0.30208917617121    2.53111837696691
C        -3.52271392668422    0.23025824667084    2.98744872677258
C        -4.30222929273574    1.29171908560040    2.48613592057162
C        -5.65455983567961    1.39608463283089    2.77744913875178
C        -6.23010934028561    0.43142756096405    3.57773719548720
C        -5.47042947317720   -0.62175586982683    4.08962680851313
C        -4.12795292284798   -0.72773648803518    3.80473797228209
S        -3.35528640445499    2.37295662777179    1.50703703431659
O        -0.15663600331497    2.84917434034396    1.24603574331074
H        -4.36391368140496   -2.54640893328780    1.78045064027494
H        -3.05792604160645   -3.75803682722118    1.72155977822928
H        -4.13367802962872   -3.55470352036186    0.31924994379787
H        -5.21162122702164   -1.52273792252927   -0.11965201018495
H        -5.81642175437188    0.36955595687184   -1.52775271478202
H        -4.07889734490090    1.91334105575310   -2.37054626743655
H        -1.72100309241323    1.54692327978875   -1.74526638048877
H        -0.59929476434660   -1.21650875540544    0.51284253802796
H        -0.36105193733228   -0.50456228285934   -2.37277281939007
H        -0.59686458954479   -2.63255950667578   -3.14585791762128
H         0.10015595418809   -4.99611162360679   -3.23846886385437
H         1.77730627197651   -5.83471527250784   -1.62624171956189
H         2.71749078395003   -4.34979904133000    0.05890160653788
H         3.95280019210007   -2.46234843504594    0.73275323378287
H         3.26411505472202   -1.28357875301342    1.87881835715024
H         2.70075526027007   -2.96996419271200    1.90198804658844
H         4.27513038917500    0.35074870609950   -0.36162207034995
H         6.54144472001923    1.72933981344165    0.46932444573116
H         8.04446434983245    3.62748270975729   -0.01364513196951
H         7.64101973744157    5.07819464703127   -1.95271804567550
H         5.72218538232166    4.66276091653376   -3.45611360962359
H         2.00568651330295    0.87137229277880    0.52897500410418
H         0.48785462965350    3.87059724058739   -1.69178054490431
H        -1.42235662077628   -0.41553344756890    2.79711864151610
H        -6.23450140727615    2.21570146498428    2.38370492047594
H        -7.28119395393042    0.49237229914563    3.81586536467348
H        -5.94631646693536   -1.36012376496044    4.71793055541314
H        -3.53612183191368   -1.53858105586137    4.20288477204246
