96
 energy: -143.130042240405 gnorm: 0.000204681568 xtb: 6.3.3 (4ae9cef)
C        -3.36706422502634   -0.80730913083501   -3.12112529582802
C        -2.36428424329231   -0.18751008705545   -3.80955894361488
C        -1.17897651989838    0.15401745920882   -3.14563935899581
C        -1.01163735476636   -0.13977003796663   -1.82100832506374
C        -2.02275099970024   -0.78190319443808   -1.07301963546941
C        -3.23109680486645   -1.11016984236266   -1.74999359670276
C        -4.28417095813745   -1.73114124037617   -1.04874206971600
C        -4.15519528411877   -2.02309027663345    0.27728067908872
C        -2.96494160060854   -1.71493886392763    0.94481055603186
C        -1.91075051301587   -1.10755790510970    0.30754138678573
C        -0.65813956761601   -0.88604846835150    1.12443605726038
C         0.49672825799540   -1.82829991162361    0.67187134484145
C         0.96394504056238   -2.78164712082393    1.75418723779591
C         1.04965499297461   -2.34782727418834    3.05647896017903
C         1.45505170666696   -3.19545576185922    4.09469513788841
C         1.76215195531358   -4.49751590964910    3.82935794152426
C         1.70256549247689   -4.99032799998534    2.51033719935954
C         1.32047268641969   -4.12640393045991    1.44405502722354
C         1.32418145157602   -4.66092707322224    0.13575639749630
C         1.65109900953457   -5.96864427918653   -0.09501898130861
C         1.99638169000411   -6.82176631283832    0.96185270864836
C         2.02839795516192   -6.33560115501271    2.23689997331667
N         1.57311554147033   -0.92480574328860    0.23391574951657
C         2.10258329371019   -1.09440513501220   -1.03221562828283
C         2.92644857525896    0.02028845149235   -1.56828404792964
C         2.72326570779643    0.35811450863213   -2.90391435163495
C         3.43824538929097    1.40095377604658   -3.45508943556006
C         4.36299835496194    2.09971905332569   -2.69541321543110
C         4.60886212887831    1.75724734859959   -1.37095712759098
C         5.61770621289662    2.48218778332645   -0.49503442808132
C         6.68270083771027    1.48297014393158   -0.02109623104748
C         6.32448650504619    3.61955951588295   -1.23705505785208
C         4.88562979796443    3.07948843575117    0.71617509865583
C         3.87871046714892    0.70595838084658   -0.82493487778949
O         1.89984675870304   -2.11152113147038   -1.66122477112192
C         1.34803222865408    0.36068090358480    0.85231074307309
C         2.09611739020824    0.48655505229984    2.20231931825523
O         3.14891708773956   -0.32996204088375    2.31976673103858
O         1.78603693924812    1.26897866523357    3.04775481977729
N        -0.08168319033996    0.44739352418265    1.04218090216723
C        -0.73693243903551    1.61679317077418    0.77694086395233
C        -2.18602422643590    1.61005844745643    1.10842959001809
C        -3.10366182664267    2.07121517217316    0.17692569527957
C        -4.46472050058753    2.11726794078870    0.46125619921597
C        -5.42807298364739    2.65076331388879   -0.58687974070724
C        -5.33654215188408    1.77940832623783   -1.84587694031717
C        -6.88268202057295    2.64635923566426   -0.10879012067648
C        -5.03715066824491    4.09651818461957   -0.92369255091644
C        -4.87572303961191    1.68938360671062    1.71786968919774
C        -3.96053031744494    1.25924456317514    2.66514830077767
C        -2.61280689873789    1.22023472656290    2.37244471987364
O        -0.14868701891353    2.58363261488429    0.33712895926488
H        -4.29084358295170   -1.07183136104649   -3.61539712977040
H        -2.47788161045941    0.04602670927398   -4.85772800828695
H        -0.39188630103170    0.65858759586189   -3.68618563395765
H        -0.08625735007850    0.14611161193680   -1.35444588583403
H        -5.19171488004065   -1.97250195350219   -1.58337090293749
H        -4.95965612117294   -2.49440262316651    0.82123921729957
H        -2.88083082880380   -1.96454837845908    1.99285168242114
H        -0.91618741878124   -1.10926377794469    2.16588796217422
H         0.17519026520952   -2.39649256548704   -0.20479720915856
H         0.80102227564606   -1.32952801052488    3.31699590494222
H         1.51045136305379   -2.80501472915051    5.09923948477050
H         2.05883355150993   -5.16888578824579    4.62194571398369
H         1.10529302724586   -4.03351532748519   -0.71176258889336
H         1.64914005352176   -6.34922550530442   -1.10552201544977
H         2.24583961825895   -7.85282858498053    0.75943430863181
H         2.30929801374486   -6.97266159868412    3.06346283929156
H         2.00457001592237   -0.20090196837683   -3.48333650408396
H         3.27735390776104    1.67742998193761   -4.48658856643437
H         4.89618014400482    2.91306256952191   -3.15887102089257
H         6.24951236388505    0.69685153323659    0.59115747852006
H         7.43424155351206    1.99663062473783    0.57393198817367
H         7.17447564674352    1.02121168963818   -0.87507052196911
H         7.03543513995287    4.09994046883080   -0.56833066040009
H         5.61303494429461    4.37336393759611   -1.56581381395210
H         6.87494537037360    3.24491938934548   -2.09720558460042
H         4.07567477691762    3.72798058186822    0.38891878103393
H         5.57712436886438    3.66830686037544    1.31430728295420
H         4.46520789846287    2.30827228498048    1.35595172527961
H         4.07747091252904    0.40693378824796    0.19149236582874
H         1.67392964550486    1.20891608273124    0.22938379023768
H         3.14425230987347   -1.00409660834255    1.61530037943095
H        -2.72785842742569    2.39048108514090   -0.78323831682199
H        -5.60860797151626    0.75316307264086   -1.60947380559142
H        -4.33048071487580    1.77642121517768   -2.25551272934614
H        -6.01601825916635    2.15287318757290   -2.60915948590093
H        -7.52332666486626    3.03501167126359   -0.89774984265999
H        -7.00938992175305    3.27839157665081    0.76698663043901
H        -7.21466083900109    1.63760656537331    0.12618011384032
H        -5.07528302220350    4.71449754216078   -0.02916413344921
H        -4.03136251447426    4.14922797271558   -1.32992611817286
H        -5.72535613640515    4.50891092620048   -1.65854250262002
H        -5.91934743499408    1.69945724098863    1.98615223598743
H        -4.30804825951319    0.95784390426349    3.64264751961692
H        -1.89358500947123    0.91682663173443    3.11815832046540
