74
 energy: -128.157449912012 gnorm: 0.000422930035 xtb: 6.3.3 (4ae9cef)
C         2.11695758210590    0.65672654962607    1.60145911687695
C         3.13356038271553    0.42818343844537    2.48180241730074
C         3.53107067741143   -0.88730050173652    2.80264853980414
C         4.60797157294629   -1.15691323236173    3.67076807274644
C         4.97176738816482   -2.44434333281761    3.95157230991264
C         4.27109970663570   -3.51955748709914    3.38340624885889
C         3.21863240935023   -3.29064004059045    2.54214454951282
C         2.82459162942643   -1.97440200872808    2.22554983809845
C         1.77154571821578   -1.70516501985410    1.32874868250223
C         1.44094520383432   -0.42009806503427    0.99255806330047
C         0.35752643674857   -0.14021655742228   -0.01279196129508
C        -0.89289129358842    0.47496502125185    0.65644785550509
C        -2.03376296115592   -0.51279318965682    0.67474886421480
C        -2.88506261583467   -0.64651307497991   -0.38928953009047
C        -3.92266614810789   -1.59983752476325   -0.36659706090103
C        -4.81969686264383   -1.74386213738156   -1.44562878962043
C        -5.81856289814099   -2.67559630063341   -1.40045887263031
C        -5.96573837505407   -3.50441676321159   -0.27652421058723
C        -5.11096452109355   -3.38955073187654    0.78390739662994
C        -4.06966607076319   -2.43874252309432    0.76841538764470
C        -3.16855186171147   -2.28761008124350    1.84307174198112
C        -2.17850839810712   -1.34877139750656    1.79835941848919
N        -1.16763216395419    1.67421169213879   -0.11521728452639
C        -2.22212042195956    2.46440732475610    0.21664865047118
C        -2.45078768632497    3.65109269231889   -0.65195159666286
C        -3.63857555487648    3.84427235521701   -1.28669233809385
S        -3.68240266833105    5.30573976208992   -2.17201393653456
C        -2.08904401455036    5.70998532024850   -1.66278535770031
C        -1.55351374259661    4.74551465549401   -0.86358103516024
O        -0.32132463627120    4.74922563983060   -0.27741947184321
C         0.46011613671670    5.90854454928509   -0.45583066609290
O        -2.94238841247168    2.19700766879760    1.15491691291725
C        -0.23656478345796    1.88334692865576   -1.18338173633295
C        -0.90215704493328    1.81506840537009   -2.59167759334247
O        -0.10100998051447    2.14957841802439   -3.57983487952466
O        -2.05291044100708    1.51557026499535   -2.74013288498852
N         0.76459154254162    0.84480168265005   -1.00252800650893
C         1.96113318297404    0.96321590422446   -1.60062461465604
C         2.98770790094279   -0.06131851850260   -1.31406748241067
C         4.23899530919596    0.24958858777767   -0.87621266120018
S         5.22413839039357   -1.13140083677714   -0.67341098690814
C         3.96739125110898   -2.16185887129749   -1.24054359059852
C         2.83586211486970   -1.46676719698487   -1.54304460658551
O         1.66608704803628   -1.94991800498944   -2.02707427206883
C         1.61247379579835   -3.33206591578072   -2.29764758145432
O         2.19416121839766    1.90565599337179   -2.36106277146237
H         1.82766843271730    1.66733812578113    1.35079125124966
H         3.65648794793064    1.25477338302678    2.94041594715121
H         5.14340392165467   -0.32600259231376    4.10690438847554
H         5.80093527027233   -2.64433016863542    4.61375870625141
H         4.57202774894964   -4.53000985569029    3.61744766130330
H         2.67475990827573   -4.11471035017889    2.10244085086703
H         1.23444513938156   -2.53465905183491    0.89023017616850
H         0.07735476247710   -1.06720423322709   -0.52885034007950
H        -0.67016273854453    0.77099531490855    1.69117252975427
H        -2.78892491963050   -0.01095592412692   -1.25723792053694
H        -4.69959733712194   -1.09936627685421   -2.30434638569032
H        -6.50461798967621   -2.78135037687418   -2.22828521242691
H        -6.76292571632790   -4.23347919617377   -0.25756699968161
H        -5.22205824363404   -4.02406977941804    1.65209686523150
H        -3.28003977822400   -2.92457704578511    2.70911477839369
H        -1.49584255386178   -1.23346124982166    2.62855058516387
H        -4.47919266800038    3.18094016074342   -1.29324162613168
H        -1.65715002766648    6.63454003782640   -1.98650281014232
H         0.70728051244196    6.06092772054318   -1.51124816804969
H        -0.05527860430568    6.79373614237438   -0.07268524976245
H         1.37409127472240    5.74360345298939    0.11211013119728
H         0.25686749504917    2.86804729886100   -1.10252944783855
H         0.84633065424167    2.25246268949317   -3.27535753933095
H         4.61691643947132    1.22278705300175   -0.63702624863326
H         4.15170034321180   -3.21374164353006   -1.30999462423210
H         0.61233714056028   -3.52242656060757   -2.68228091061820
H         1.77588145210046   -3.92007530375430   -1.38897549715933
H         2.35547609245820   -3.61677731099994   -3.04805517787462
