72
 energy: -111.302371644786 gnorm: 0.000505373941 xtb: 6.3.3 (4ae9cef)
C        -2.81436341289299    2.12017993763477    0.08062725338268
C        -3.82171089804620    2.37412627129744    0.99443097183833
C        -3.77296061187491    1.80829239486472    2.25603950904574
C        -2.70728067968568    0.99588903257268    2.60650542865808
C        -1.69993083098681    0.74065792999521    1.69536427421376
C        -1.75541833937466    1.29157621377582    0.42013178721889
C        -0.65691895082707    1.00130291630128   -0.56941961563783
C         0.69162170324351    1.59778248021995   -0.10255147000879
C         1.14517225091661    2.72786411155551   -0.99179105630269
C         0.94039176615734    4.04370678713843   -0.60196449455644
C         1.33540857355562    5.08492142622993   -1.42298327649239
C         1.94116808847038    4.81981699079931   -2.63933155115880
C         2.14610420448533    3.50885886585621   -3.03437739365974
C         1.74548848295254    2.46771037822726   -2.21659991872006
N         1.62572080575578    0.48282682681632   -0.12600004862653
C         2.80823320219131    0.60323096361756    0.54296033163019
C         3.72951590004728   -0.55646916710104    0.40842381257278
C         4.19629827526699   -1.20220742220872    1.54534152161235
C         5.06195498530332   -2.28039603581719    1.45377140575219
C         5.52324531576921   -2.98217534792219    2.69419301187879
C         5.49442028198260   -2.70373724463590    0.19322591328012
C         6.42501378959568   -3.86852810845726    0.05961249691188
C         5.05397245925412   -2.02796680538700   -0.93615956508839
C         4.17650475139654   -0.96636810483905   -0.84034572686691
O         3.07728622276739    1.61097360035027    1.16448107808880
C         1.03270340641685   -0.72342089320293   -0.64365808838124
C         1.29713938294075   -1.96143004917038    0.24212143867102
O         0.90297385758772   -1.73912279299771    1.50175605920845
O         1.90517906907929   -2.92993255185354   -0.11151449314749
N        -0.38382659252094   -0.42074326805119   -0.69435214011903
C        -1.26659329047229   -1.43973178035725   -0.57862034347931
C        -2.70162330310357   -1.08398989253371   -0.72380869158975
C        -3.16891579560878   -0.44190547844530   -1.86207745950222
C        -4.50914923179825   -0.12078525297003   -1.96032998339597
C        -5.39858732332658   -0.41386465441428   -0.93573539754911
C        -6.83750108298232   -0.01691040305374   -1.04873962188902
C        -4.93426328120114   -1.08676421135062    0.19910712743848
C        -5.86674460932307   -1.42831443250978    1.31911250950581
C        -3.59483805760585   -1.42998410087205    0.28093834886057
O        -0.86916378587206   -2.57760365616273   -0.38869545241740
H        -2.85490017286274    2.56035843181197   -0.90502565236115
H        -4.64678390480484    3.01340523254956    0.71760433986539
H        -4.56140672064180    2.00287971591358    2.96796217142305
H        -2.66221499245282    0.55945187980456    3.59316946946589
H        -0.87388711955742    0.09803781453767    1.96471267600831
H        -0.92064714756751    1.41899828152450   -1.55110598120653
H         0.61813296578476    1.96861514580616    0.92778163806562
H         0.47584382036071    4.24994735297853    0.35109875948055
H         1.17638015639675    6.10595163299862   -1.10917570280566
H         2.25645919722239    5.63251422125031   -3.27675832713014
H         2.62067850941171    3.29633041320843   -3.98118893317726
H         1.90856459117325    1.44583282990495   -2.52731716200342
H         3.85988982738444   -0.85873124914970    2.51364747112934
H         5.10566247788306   -2.51231109320169    3.58106511817585
H         6.60990573851652   -2.95655076059690    2.76820406060884
H         5.21738623648885   -4.02799965612343    2.67570519808832
H         5.96912901167369   -4.76775005506620    0.47257595425094
H         7.35156604915128   -3.68589950118792    0.60363340708077
H         6.66557909153463   -4.05157639958481   -0.98436521718922
H         5.39788727973761   -2.34559314516779   -1.90991776087429
H         3.85211907966745   -0.44748752288192   -1.73044466213238
H         1.40250144404618   -0.97380221796709   -1.65459741680837
H         1.07182938608964   -2.52961429081275    2.03727030383062
H        -2.49215399254077   -0.20648710703655   -2.67011631027416
H        -4.87152716450860    0.37698291723012   -2.84868399818096
H        -7.02378316192602    0.49930775130317   -1.98666228888469
H        -7.11550051192956    0.64218508966080   -0.22703529670469
H        -7.48295339194954   -0.89319551655638   -1.00115955458198
H        -5.34245219054930   -1.96733436406822    2.10333239270567
H        -6.29341193238822   -0.52144157573561    1.74669687045799
H        -6.68950605433680   -2.04624183656349    0.96173977957815
H        -3.22411710213519   -1.95614789171800    1.14826416294792
