74
 energy: -126.847595609453 gnorm: 0.000413793033 xtb: 6.3.3 (4ae9cef)
C        -3.53551029916716   -0.70971682165574   -1.15140641177056
C        -4.35446754808985   -1.52869178740091   -1.87603035424332
C        -3.99303637213672   -2.86240894585713   -2.15155234747751
C        -4.81130329831331   -3.72880385608608   -2.90618221466435
C        -4.43185137489056   -5.02086710369109   -3.13796109492057
C        -3.21921974574876   -5.50754808157154   -2.62326584734336
C        -2.40399355022857   -4.69309227019704   -1.88944913508432
C        -2.76451699205155   -3.35232477105884   -1.63743894677339
C        -1.94178251170556   -2.48414949594416   -0.89385693226195
C        -2.30008296247712   -1.17823132886313   -0.67182979937475
C        -1.38782940783687   -0.28545916987377    0.14415169823998
C         0.08499540420290   -0.32793613882391   -0.32160874122365
C         1.05731493140197   -0.47305441263449    0.82248745850200
C         1.86785993207317   -1.57253208068580    0.92438216622811
C         2.85329081014790   -1.66075477110869    1.92742372893712
C         3.74685280727418   -2.74907894004602    2.00400452305154
C         4.72985244849230   -2.77609212296592    2.95267152298926
C         4.85777730454271   -1.72519666745225    3.87433132006329
C         3.99982526438336   -0.66259423194026    3.83372367885049
C         2.98225511222028   -0.59899180168999    2.86058358179205
C         2.09644599534042    0.49492282764487    2.76970451208555
C         1.16403536068374    0.56021404749027    1.77542488321194
N         0.26958086268076    0.95231638993496   -1.00132385235162
C         1.43621657623655    1.42031403632290   -1.47709057099416
C         2.60127580065785    0.49428879790941   -1.38342509614829
C         2.69101150764989   -0.61190792848666   -2.22115651136016
C         3.77114927564230   -1.47318801037455   -2.11719446343482
C         4.75288456682691   -1.25070092539886   -1.17039574567035
C         4.67106031341337   -0.13061161344237   -0.34332179144697
C         5.65686621288923    0.08962870170756    0.64772579959998
N         6.44666402294645    0.25182810922358    1.46149961220444
C         3.60642174714593    0.75878514605974   -0.46634594110276
O         1.52542496204711    2.54252683134016   -1.96964116930636
C        -0.88739508698366    1.82730079669688   -0.84143856513275
C        -1.59174500808423    2.14325454644870   -2.20135781582484
O        -0.82376088585481    2.74536985242726   -3.07969668892270
O        -2.74927177333168    1.90374631628067   -2.38526916135050
N        -1.72022689818769    1.12878162519554    0.09392614546478
C        -2.40152500590940    1.69861385515694    1.13041146437531
C        -2.50572047112247    3.19035036928095    1.08864881889106
C        -1.90843256494119    3.91743194222721    2.10846288198048
C        -2.01435670737276    5.30702092704186    2.11835200070543
C        -1.38156632034670    6.04831706736005    3.14453462949045
N        -0.85805247767519    6.64537647456776    3.97066358825320
C        -2.73597618005016    5.96365759247114    1.12099620408118
C        -3.34774057167677    5.22641213602752    0.12436502325642
C        -3.23485747233646    3.84533166742901    0.10068456425649
O        -2.87341782320679    1.03551858279079    2.02682237584161
H        -3.83180842257317    0.30558448116401   -0.94949977794296
H        -5.29818814881604   -1.15777359699151   -2.24726932696949
H        -5.74436658176770   -3.34992731782497   -3.29763406110408
H        -5.06196817136344   -5.67952650815665   -3.71733588543672
H        -2.93737763618380   -6.53284491538560   -2.81355291227001
H        -1.47003808418527   -5.06401800396570   -1.49070235592143
H        -1.02101134646978   -2.87977558000390   -0.48585777269861
H        -1.47091541652245   -0.59548066120081    1.19577991326544
H         0.23498980597851   -1.13852168825769   -1.04147058690173
H         1.78731472064590   -2.37715234482034    0.20621042719059
H         3.64463357049046   -3.55444686304753    1.29036269750721
H         5.41843437472362   -3.60647246606122    2.99925119992126
H         5.64330624116587   -1.76257984353858    4.61317130736919
H         4.09470906477813    0.14947623892820    4.53914598394418
H         2.17962846276381    1.29213270155036    3.49377815301279
H         0.50510965801377    1.41395105333782    1.70778012918737
H         1.92069518055849   -0.79349467081665   -2.95644272837293
H         3.83949554054760   -2.32802610508437   -2.77275867581582
H         5.58401335091921   -1.93145093673031   -1.06477031910056
H         3.55326792099952    1.63051357234694    0.16808455182834
H        -0.56265380811567    2.80392389457474   -0.43737931048979
H         0.11580620007038    2.87446685134348   -2.75968951025664
H        -1.36554899672374    3.40992087215214    2.89296485826432
H        -2.81509635369507    7.04029677249684    1.14116859422102
H        -3.91701744637013    5.72837129246500   -0.64270909866744
H        -3.71683858805128    3.27547540970388   -0.67837047791623
