84
 energy: -149.317054421387 gnorm: 0.000241402869 xtb: 6.3.3 (4ae9cef)
C        -1.23930643825748    4.07484417186554   -0.89381541810373
C        -0.43131258252654    4.40727828842993   -2.11620662585837
F        -0.68818253964033    5.62709657922182   -2.60264070170542
F        -0.61280147745468    3.55782020952478   -3.14335084608590
F         0.90112986746207    4.39086969842325   -1.86672043487070
C        -2.12234695195669    5.02907584800477   -0.40317711753304
C        -2.86072684476913    4.77461724898832    0.73586867539475
C        -2.70494501671590    3.57052401441136    1.39944830125673
C        -1.82340225104896    2.62521719567478    0.91526730989589
C        -1.09094112577273    2.84891902874825   -0.24516399837738
C        -0.14931475147374    1.78028947808494   -0.72965537545098
C         0.97259418696931    1.47563297511225    0.28797592526030
C         2.20437923288561    2.31121768129277    0.05302200514303
C         2.63602833489710    3.30144236474997    0.93603218886296
C         1.86855199162105    3.62509370047211    2.18719078609054
F         2.43952257984920    4.58838565442876    2.92043755388786
F         0.61870434730837    4.07227623695905    1.91480271906679
F         1.70160301089814    2.58305865259968    3.01965075072304
C         3.78006284429854    4.04074659631452    0.65886499788107
C         4.50201758722659    3.80481412599066   -0.49454737496540
C         4.07505694707726    2.83388471264843   -1.38287316221216
C         2.93763361352052    2.10068018764975   -1.10947082960682
N         1.23166078267893    0.05896668839603    0.05072432796081
C         2.37935072145751   -0.54981585460166    0.46626153443294
C         2.59918352526183   -1.90468005237762   -0.13188881423445
C         2.04230078454681   -3.07664489369656    0.37420443068691
C         1.21629873522155   -3.05443164524382    1.63693071247559
C        -0.05457220880577   -3.89711782123626    1.51493017946796
C         2.08116283731151   -3.54017377746470    2.80453369784086
C         2.32229068299682   -4.27010339491226   -0.28042759035695
C         3.13084715685059   -4.30191877934260   -1.40059725562567
C         3.70410713895834   -3.13624964487404   -1.87822692753049
C         3.44280327892269   -1.94040456848668   -1.23841014102585
O         3.18418899436282    0.01646706797320    1.17156453912381
C         0.14812851431445   -0.57959036016500   -0.65936249416147
C         0.61760153157040   -1.17865470354068   -2.00352927754534
O         1.22037458670139   -0.27018486053080   -2.76661950859560
O         0.42318147229465   -2.31147912592277   -2.34075457678968
N        -0.80819692313498    0.48282146401709   -0.85879084294534
C        -2.09783643441761    0.33441753942725   -1.28632855710827
C        -2.56984342768923   -1.08779504971620   -1.29110601243691
C        -2.42368844152450   -1.83729692593065   -2.45114391126334
C        -2.80650450726608   -3.16483457720541   -2.47640251196125
C        -3.33370352924468   -3.74426308593049   -1.33553200251677
C        -3.52616154328720   -2.98433263225913   -0.19641627564773
C        -3.17079968268153   -1.64123909094922   -0.15897271743126
C        -3.45600282253455   -0.79111195349788    1.05758045722733
C        -4.92610014362320   -0.90312637267332    1.46844667385960
C        -2.54475294873271   -1.16594585987183    2.22835610631128
O        -2.78110326626656    1.28125665735631   -1.60642737058826
H        -2.22943133942764    5.97065266601428   -0.91871152353804
H        -3.54987413637685    5.51760889604372    1.10519841115177
H        -3.26915064501194    3.36797769864473    2.29690650627481
H        -1.70099729987829    1.69115066289155    1.44202764667803
H         0.30326643073696    2.04332385285298   -1.69093677294346
H         0.59610225661328    1.60242960580509    1.30775286166141
H         4.10384199884782    4.80083252223904    1.35252647432571
H         5.39149536704959    4.38016291335191   -0.69766133116622
H         4.62848624907448    2.64856737349576   -2.29088707841710
H         2.60785513483831    1.34453652537550   -1.80511956200341
H         0.93393801749498   -2.01649277805683    1.84925949689102
H        -0.60818527783608   -3.64481029682510    0.61167875850576
H         0.18461111695508   -4.95646163573013    1.48234312569228
H        -0.69463164021121   -3.72656762040067    2.37725344417090
H         1.50914917048159   -3.52260672662660    3.72933718276995
H         2.94860005047113   -2.89465445023697    2.91991433428531
H         2.42621802702754   -4.55603677526785    2.62648715994004
H         1.90222429743457   -5.19202636361757    0.08958953760063
H         3.32379207529755   -5.24109556707251   -1.89696663855236
H         4.35170085476122   -3.15872491244148   -2.74194160927885
H         3.89064323224432   -1.02023950215988   -1.58730607602730
H        -0.29847590365922   -1.40778239823741   -0.08818135113032
H         1.47939287160166   -0.65089962383857   -3.62246234297459
H        -2.01480792373479   -1.37204462039767   -3.33577413747598
H        -2.68472277385499   -3.74392577716326   -3.37817862757482
H        -3.61379374019725   -4.78716178644749   -1.33829858265593
H        -3.96595347499828   -3.44343150434080    0.67593816455747
H        -3.27416981640276    0.25316087051222    0.78781710135430
H        -5.57011218732320   -0.68497129168037    0.62021578909154
H        -5.14465064774911   -0.18943014550014    2.25961281232731
H        -5.16008590576579   -1.89906431611435    1.83538292096519
H        -2.76472592316649   -0.53955166469530    3.09036638620478
H        -2.69925617726514   -2.20421097431450    2.51219558944417
H        -1.49650976670377   -1.03452989240135    1.96708772954168
