54
 energy: -110.666684963449 gnorm: 0.000711130874 xtb: 6.3.3 (4ae9cef)
C        -2.23093669090667    1.62254269769407    1.26334486254906
C        -3.28251985304826    2.29541182729434    1.85702888586375
C        -4.15232952526575    3.04384058525805    1.08155894785271
C        -3.96690098927649    3.11491628209030   -0.28800538556260
C        -2.91534574256298    2.44007985813661   -0.88307790298049
C        -2.04022519628417    1.69109732255934   -0.11144483006098
C        -0.89233701223530    0.95010389657472   -0.74724809559696
C         0.49112887346032    1.41246793525659   -0.22409009844406
C         1.44436009013154    1.77758025135429   -1.34032154683915
C         1.06218711114267    2.75736956820799   -2.24934445525270
C         1.90327979697644    3.11813753515817   -3.28517351022252
C         3.13853754412059    2.50715315954125   -3.42232874064344
C         3.53090256879328    1.54444091622225   -2.51047902393517
C         2.68956827184249    1.18304839197198   -1.47220280183817
N         0.94890689789438    0.28770367913309    0.57486035402733
C         1.72054382251075    0.44226516679519    1.67968794175839
C         2.01807508703944   -0.85100209051557    2.38147200048888
C         3.19331391142633   -1.52660189514262    2.25006890031121
Cl        4.52121580836832   -1.06627046195530    1.29080107092077
S         3.22242803697628   -2.99932884037273    3.17309048451289
C         1.61651035775418   -2.67226022025862    3.74858026050221
Cl        0.83151879996975   -3.74943307808301    4.81037584851943
C         1.11219962810472   -1.51137225151380    3.25211864279076
O         2.13113544995772    1.51537823678510    2.04981511345258
C         0.32357294429712   -0.92297178490122    0.11966752051023
C         1.14532487292656   -1.58566044571468   -1.01321273860259
O         2.07920147104388   -2.38608123871961   -0.50872275816843
O         0.95524562197985   -1.41044046240645   -2.18027499762968
N        -0.94263334233549   -0.46523913980175   -0.38692647304123
C        -1.95107177053602   -1.27240765700415   -0.80207740478135
C        -1.75707210864128   -2.69528613877821   -0.36385414338643
C        -1.48973506889947   -3.72681202632864   -1.21342991698543
Cl       -1.31707457597921   -3.62827014368678   -2.90240801214873
S        -1.28016297040235   -5.23777445779659   -0.37416654917123
C        -1.58143777428948   -4.44185418575072    1.14242745357865
Cl       -1.55465488570486   -5.30985100116341    2.60800348437117
C        -1.81593370378223   -3.11190316646999    0.99269584192472
O        -2.91101582785330   -0.87861086298367   -1.41723027338148
H        -1.55155722319430    1.03971883233250    1.86993949087038
H        -3.42483301443328    2.23576540932948    2.92596691597095
H        -4.97510806403673    3.56726347503458    1.54509110405914
H        -4.64625801100185    3.69279900367926   -0.89643680700375
H        -2.78020307398006    2.48427379010266   -1.95335944375417
H        -0.94818530262858    1.04160515537435   -1.83792079848727
H         0.38994350954200    2.27668856383648    0.44414340472650
H         0.10350829593484    3.24292029771711   -2.13692854630964
H         1.59518105174928    3.87945749921585   -3.98610062630631
H         3.79491532797940    2.78605805088338   -4.23274478118647
H         4.49744568168780    1.07160790762016   -2.60275792681022
H         3.01842848247489    0.44326061881628   -0.75719445953633
H         0.14382736032826   -1.12445331291334    3.51125252788445
H         0.22136215877880   -1.65056969242930    0.93258677511087
H         2.61663590064608   -2.78843174199087   -1.21213732528490
H        -2.05287500857221   -2.45206961730445    1.80702254079891
