68
 energy: -139.355522342286 gnorm: 0.000549891455 xtb: 6.3.3 (4ae9cef)
C        -1.92192233849303   -3.32389204318781   -0.85001832083966
C        -2.59284960393826   -2.87218676360287   -2.11721232489247
F        -3.37241298235800   -1.78147567356565   -1.92319771929349
F        -1.73717833620528   -2.53142928484205   -3.09595688021005
F        -3.40018678306698   -3.80039310364597   -2.64340250413336
C        -2.19568950679490   -4.60070304055166   -0.37542477083517
C        -1.62420012933990   -5.04485845803730    0.80125583443612
C        -0.78248354354344   -4.20903435520596    1.51329626198942
C        -0.51134765495887   -2.93859876299484    1.04381752151262
C        -1.06561051831343   -2.47820789014498   -0.14475446847875
C        -0.74681982100895   -1.07511325206430   -0.59551335801014
C        -1.36500440894372   -0.01023493888421    0.33528350407754
C        -2.62615199570844    0.57606366704812   -0.24699936990362
C        -3.89247592053802    0.34512461101029    0.28815062557598
C        -4.07553232383013   -0.53651722150151    1.49172749338200
F        -5.35676820898382   -0.67590317089472    1.85055956212695
F        -3.43022741926613   -0.10460899356170    2.58835393084882
F        -3.61933232728654   -1.79397057505987    1.27691927075247
C        -5.01804134475376    0.90357176275942   -0.30521575179788
C        -4.89310507596198    1.69079146787497   -1.43346003476418
C        -3.64185277435850    1.91391004120880   -1.98067685155361
C        -2.52330452674636    1.35737403041511   -1.39257336796501
N        -0.32045868031017    1.00499512424838    0.42215481396142
C        -0.56715090266945    2.24009646579825    0.93547548693229
C         0.59230098636245    3.19093607590922    0.87563759905774
C         1.39771641987708    3.41289430004585    1.99792197350305
C         1.23546193618867    2.60478308112170    3.14554446464290
N         1.15745367306967    1.89378170320481    4.04188398782933
C         2.41528075411949    4.36505157527476    1.95602590668142
C         2.62561066765130    5.09039978433580    0.79951549382861
C         1.83230076025302    4.86960848910646   -0.31585674205445
C         0.81665296038152    3.92842861048843   -0.27710362768009
O        -1.65265428262077    2.56706894494787    1.35584268889417
C         0.97194541100249    0.49447656547215    0.04404924357766
C         1.90018511689787    0.37631285141774    1.27669351190561
O         1.38127998985155   -0.40870788182855    2.20368718783829
O         2.94675510868538    0.95576592474451    1.37291311486377
N         0.68536111557449   -0.79706019349829   -0.52825652236250
C         1.59791383188151   -1.67170376845384   -1.02599850913440
C         3.02896666770075   -1.24712148822627   -0.88833545523971
C         3.85955773779188   -1.95121396307675   -0.02982024117348
C         5.19745851673042   -1.61254940195226    0.08366183333989
C         5.72450617646525   -0.58131749277589   -0.67775002934213
C         4.91799535011554    0.11390982004138   -1.55740717598772
C         3.56748972411294   -0.21497750868685   -1.66646002293364
C         2.74067413929966    0.51125846806986   -2.55435981851179
N         2.06751001152653    1.13018526001502   -3.24690552686707
O         1.28367048098706   -2.73601255349200   -1.50850216286091
H        -2.85927922336094   -5.24446517580723   -0.93106033880267
H        -1.84120121632859   -6.03838445575371    1.16087617039135
H        -0.33908058358070   -4.54475804714116    2.43842572259655
H         0.14296111053660   -2.28807564200394    1.60383671528559
H        -1.07580036048207   -0.90598264662946   -1.62604113150502
H        -1.53345467872271   -0.43134783975372    1.33140569071751
H        -5.99172150363965    0.71774132729636    0.12014999910486
H        -5.77180490067543    2.12288571055933   -1.88574752225069
H        -3.53631372967285    2.51868842617626   -2.86832199599556
H        -1.54856518081837    1.53113339934958   -1.82531745996885
H         3.03097193037187    4.51972159161623    2.82907189045316
H         3.41225375852525    5.82850062532034    0.76586414659397
H         2.00225732597047    5.43337809130462   -1.22022704307209
H         0.19105656318506    3.76576596761119   -1.14207233543672
H         1.46385696336454    1.17469185637673   -0.67096141470962
H         1.87852756197780   -0.36631435111150    3.04028156491613
H         3.44571230677897   -2.76399900159366    0.54840078462362
H         5.83153223622687   -2.15857283364203    0.76523870305996
H         6.76812982659681   -0.32173359018737   -0.58886322790515
H         5.31867466720323    0.91213374316785   -2.16414867281893
