74
 energy: -128.177425543299 gnorm: 0.000726084031 xtb: 6.3.3 (4ae9cef)
C        -2.97358465318067    1.17807805931434    0.56198591767742
O        -2.83749443385510    2.39940613091107   -0.02981664546100
C        -3.95193144281440    3.25946464130914   -0.06590187126261
C        -4.14989271561288    0.70649891045436    1.13220916846686
C        -4.18988455971710   -0.55226193201988    1.70744807517370
C        -3.06292370737965   -1.35153161526734    1.73039784957349
C        -1.89043742776551   -0.89276480571512    1.15625810825932
C        -1.83702746772484    0.35684400748775    0.55928631862334
C        -0.56281156535519    0.83226856045954   -0.09206058800009
C         0.57101310326579    1.02210803837617    0.93835664207803
C         0.94455260148512    2.47070291383914    1.11674101236685
C         0.63174358987676    3.12697657933210    2.29360934369500
C         0.95350434790610    4.46084120216723    2.47566181060410
C         1.60602540696698    5.14461533909557    1.46884247759385
C         1.92736688555978    4.50754856938943    0.28200169245500
C         1.59524290587094    3.17265112362786    0.09128825721850
O         1.85580984872839    2.47357936585258   -1.05521557307843
C         2.54692560242286    3.11893706255892   -2.09618120882023
N         1.67632637792199    0.22746617858398    0.42278820476757
C         2.85635449400471    0.18575153787931    1.08440302117362
C         3.91144338569366   -0.61621632235872    0.39987784888443
C         4.63556184996996   -0.18316585863453   -0.65607493617246
S         5.80915478985728   -1.32690099950094   -1.21118736733369
C         5.32687948762618   -2.45488527070912    0.02282459083053
C         4.29651955563762   -1.92915405368992    0.82496004962273
C         3.77878208504039   -2.70199178480672    1.86489396117875
C         4.28821198782944   -3.96275368422503    2.08056393660266
C         5.30888049535130   -4.47161014625083    1.27653217267408
C         5.83801495180666   -3.72513265672002    0.24380329758337
O         3.03159155072265    0.74938304258606    2.14394130221011
C         1.35754205462730   -0.46491197185750   -0.79520192608167
C         1.50493877361508   -1.99742646712590   -0.65665773352121
O         2.41037685936921   -2.48646857653615   -1.49256774459747
O         0.93416063231497   -2.63757738746214    0.18414025547136
N        -0.03397274950159   -0.14870067359982   -1.02477349882824
C        -0.73937865957877   -0.97290520842109   -1.82780893461842
C        -2.16126367760526   -0.61240360235795   -2.03729593316388
C        -2.59826343005971    0.55524003987963   -2.56401386440659
S        -4.31973314928637    0.66041340878018   -2.67393716715936
C        -4.49042139377902   -0.92801849245499   -1.97978325717355
C        -3.23689670141783   -1.50391006101229   -1.71125575873799
C        -3.17844809131766   -2.78283501701923   -1.15899326174621
C        -4.35245713672088   -3.44777301563446   -0.88532101179569
C        -5.58920841638395   -2.85856443101425   -1.14671176178638
C        -5.67141572038741   -1.59680547961960   -1.69832452723599
O        -0.20590211542630   -1.94140711265451   -2.34523566630840
H        -3.60320626282698    4.16670328969077   -0.55664783400395
H        -4.30088838994395    3.50583278264613    0.94124316051106
H        -4.77262525769296    2.82631557174165   -0.64652058006129
H        -5.04347096958215    1.30976678007989    1.12573943449914
H        -5.11495084466054   -0.90520727690149    2.13759727187846
H        -3.09612652190440   -2.32985791538753    2.18275049880743
H        -1.01152918382834   -1.52128249966600    1.14539948482333
H        -0.75101295222699    1.77694590717650   -0.61280815974801
H         0.27425217074413    0.61841519263300    1.91468432477591
H         0.13513597929733    2.57907128911444    3.08002643240926
H         0.70460683306963    4.95705647214950    3.40070091573550
H         1.87384225070517    6.18252483466876    1.59911879650481
H         2.43895573984706    5.06284457837831   -0.48812653953239
H         1.98626717500956    3.97598455904991   -2.48329473503860
H         2.65137461775881    2.37626682417468   -2.88685730391490
H         3.54025661412947    3.45072081820141   -1.77678739445479
H         4.56079593593870    0.76246546767919   -1.15688774554556
H         2.99234424724095   -2.30068143057847    2.48485855770377
H         3.89589414033778   -4.56833399173178    2.88333665253189
H         5.69079277728778   -5.46349894631941    1.46584295327136
H         6.62694492590184   -4.11264957259643   -0.38177449010583
H         1.97868732652961   -0.13348862710579   -1.64220441420065
H         2.44817947263471   -3.45408839467028   -1.42975468200645
H        -2.01098912522827    1.38332022480098   -2.90969493791238
H        -2.21718040727629   -3.23131036158837   -0.96278270104345
H        -4.31953517633669   -4.43916231656038   -0.45937868358034
H        -6.49575382916351   -3.39838046097730   -0.91772359003374
H        -6.62463469435961   -1.13698688333318   -1.90854376977192
