72
 energy: -124.970597255880 gnorm: 0.000276866743 xtb: 6.3.3 (4ae9cef)
C        -1.84342893751448   -1.97497908784572   -0.40797396040982
C        -2.43366125231268   -2.77918368335072   -1.33988386592466
C        -2.36667987414566   -2.46580627596137   -2.71327826303627
C        -2.98718155734777   -3.26076141370397   -3.69894492061523
C        -2.89493212465171   -2.92882615164205   -5.02172504883418
C        -2.17723505545677   -1.78956275448401   -5.42056410570821
C        -1.56514627051882   -0.99771738896722   -4.49015546122035
C        -1.64563853890034   -1.31155225154170   -3.11717125376633
C        -1.04368951654720   -0.50442094251244   -2.13297714428753
C        -1.15584494959335   -0.81205874549405   -0.80152860313976
C        -0.56469669017433    0.09445962499445    0.24392368190249
C         0.97697235827495    0.05434460112241    0.27900806582704
C         1.48215308034552   -0.83181426442208    1.38443830572970
C         2.02972740832439   -2.05530382544117    1.11056787449810
C         2.47882448386884   -2.89700875114671    2.14795613890651
C         3.05641849715498   -4.15774605197708    1.89056925298351
C         3.49464657797061   -4.94673226284391    2.91686866664375
C         3.37300287214726   -4.51417754183837    4.24683610403260
C         2.81428664614921   -3.29912908055037    4.52906396720231
C         2.35472243462079   -2.46088595679450    3.49279805908278
C         1.77889617464229   -1.19854625288685    3.74686822378323
C         1.34989550920791   -0.40781034836997    2.72124121960462
N         1.34755370835995    1.45014846207100    0.49043651721877
C         2.67735358679241    1.77465175737899    0.55935032658754
C         2.96665803981749    3.23993351422754    0.62597526467297
C         2.44060640474093    4.04028491575268    1.63398142248492
C         2.76539483696321    5.38483291532378    1.69072710831493
C         3.60792227442051    5.94168084416331    0.74433590028785
C         4.13612014405961    5.12996858793211   -0.24611897269376
Br        5.30624092810540    5.88566484498184   -1.53760028844704
C         3.83574214430993    3.78192553852323   -0.31130699256744
O         3.54059202744814    0.93177275992977    0.62654395310570
C         0.33016194074229    2.31903019473250   -0.03061592038905
C         0.68778503944525    2.79958098029713   -1.47726018658811
O        -0.17180170795958    3.63631083608766   -2.01227189499262
O         1.68911044146691    2.42707753892374   -2.01798966200573
N        -0.86965192971400    1.49727568056737   -0.01659403211149
C        -2.08960279259925    2.01537216883506   -0.22900721140666
C        -3.22943458320218    1.05736065567692   -0.14687366860092
C        -3.59651594316308    0.47410348699421    1.05734959966837
C        -4.64433967103425   -0.42964482223867    1.06950927765668
Br       -5.12588501655355   -1.25851039940751    2.71265296283462
C        -5.33071791269843   -0.75743603414946   -0.08710248935838
C        -4.97323288622675   -0.14671917558572   -1.27647296690526
C        -3.93398727786035    0.76510288704604   -1.30938754897939
O        -2.24777257832116    3.20071930419279   -0.51322148288590
H        -1.89931046300018   -2.22155253671858    0.64238817258528
H        -2.96609648486680   -3.66791056530714   -1.03423276026441
H        -3.53508277513424   -4.13849860560394   -3.38777517126454
H        -3.37162525077680   -3.54233254872712   -5.77177771010077
H        -2.11297203537331   -1.54544536844126   -6.47039949967280
H        -1.01047823603919   -0.12045744847118   -4.79002939832368
H        -0.50042607827375    0.37555390466803   -2.45038919360219
H        -0.94957730030893   -0.18342606196549    1.23325172100473
H         1.37427928383494   -0.29147683833789   -0.68495633488493
H         2.13514664401085   -2.38693111132993    0.08760829742948
H         3.15024831584264   -4.48484864436847    0.86509468733664
H         3.94019121587092   -5.90927749796440    2.71276527782828
H         3.72659430994963   -5.15033177798102    5.04490415060717
H         2.71920675439073   -2.96118874370625    5.55119647348261
H         1.68582382276194   -0.86608729293093    4.77089185675377
H         0.91808548551991    0.56239874586902    2.92402893826005
H         1.79882133104648    3.60674729762532    2.38736441587336
H         2.36215891038994    6.00605069342378    2.47609579275498
H         3.85916160938183    6.99046995936359    0.77844597431358
H         4.24986566521563    3.15139164670943   -1.08211709949847
H         0.18102977605504    3.21414213460038    0.59378872188757
H        -1.00210618802662    3.74223019953260   -1.46307708201836
H        -3.08432438803202    0.72405292033020    1.97437578298475
H        -6.13627047397798   -1.47434907892424   -0.05466194044043
H        -5.50795823370940   -0.38634045177164   -2.18217166229856
H        -3.65409570964836    1.24214943383840   -2.23558835888910
