60
 energy: -105.227056406913 gnorm: 0.000675198262 xtb: 6.3.3 (4ae9cef)
O        -1.72888628267439   -0.41013513221973    2.70056119153618
C        -1.28912384996833    0.23902245478693    1.77857557894859
C        -0.85613707737170    1.66466251515035    1.90441465033982
C        -1.36144082560376    2.67257315252061    1.08919001609372
C        -0.86110410269798    3.95885358433726    1.18167187530104
C         0.14704786337621    4.23348507094577    2.09049130819843
I         0.97948284696819    6.17656097038684    2.16349709558794
C         0.62773274723442    3.25149195576900    2.93947701890780
C         0.11674687907930    1.96923346667634    2.85055383380666
N        -1.12190705313732   -0.29560825943451    0.53238048778962
C        -0.35949390937920    0.27437905884676   -0.53887076239763
C        -1.21168726957598    0.49129121314858   -1.80675277966038
O        -2.42816456693332    0.93864812274256   -1.51187675697615
O        -0.80328654040678    0.33533235726769   -2.92103553763901
N         0.67955445769057   -0.69884545518259   -0.78355258533095
C         1.87714631917295   -0.46444302203633   -1.38164664380368
C         2.11607548347628    0.98984730234954   -1.66748013305819
C         2.41863395034141    1.84937107388524   -0.61510272754357
C         2.59766395773626    3.20128524087246   -0.84354624783413
C         2.47474758468011    3.68884618900614   -2.13287827545287
I         2.68106644789866    5.76569876323577   -2.47473456317133
C         2.21016217469412    2.84206164125726   -3.19416211777323
C         2.03517020104222    1.48874269708344   -2.95923407504347
O         2.66943997572270   -1.34540926726394   -1.62213056487159
C         0.31668354504703   -1.99164725443969   -0.21015478605977
C         1.24600886317169   -2.37751734837122    0.91545419313600
C         1.56798993775106   -3.71230303034011    1.11742615975112
C         2.38872004121804   -4.08329932103092    2.16705591699986
C         2.89652868658605   -3.12329686346289    3.02532320996001
C         2.57866679149215   -1.79065664382757    2.82997674820014
C         1.75576316742106   -1.42032467312793    1.78207702639906
C        -1.11275520060946   -1.74413684698258    0.32252577297283
C        -2.25457162253668   -2.11496060673104   -0.59413871921094
C        -2.10586703502262   -2.36450672359407   -1.95157329655708
C        -3.21591889314252   -2.63882929510068   -2.73498001433977
C        -4.48052232409789   -2.66048654871595   -2.17499203300545
C        -4.63611579690302   -2.40711602268359   -0.82162171537050
C        -3.53066383905979   -2.13609428047936   -0.03814877731303
H        -2.14702074021000    2.44826641110005    0.38366465300163
H        -1.24827151102857    4.73733054030768    0.54307956715881
H         1.39668507373880    3.47953885407162    3.66167308055251
H         0.47937842184900    1.19259216315577    3.50730646818752
H         0.05197331132795    1.25727027260316   -0.27321195965966
H        -2.95695192180342    1.06368645034384   -2.31760577341016
H         2.52268295744851    1.46148683569200    0.38866931303625
H         2.82772767626736    3.86565105786984   -0.02467817611518
H         2.13457932112651    3.22996939996387   -4.19814185125691
H         1.81581030838831    0.82104848962482   -3.77681757120099
H         0.34507022419478   -2.77032815515983   -0.97671014871743
H         1.17633806889892   -4.46229071811388    0.44591754530298
H         2.63606806115744   -5.12414981817976    2.31236819836719
H         3.54086634694481   -3.41166714367039    3.84212747044883
H         2.97413712771388   -1.03680341819461    3.49495225139349
H         1.51482095106029   -0.37649765329449    1.63581339677586
H        -1.25964904640522   -2.21872220297388    1.29841695525821
H        -1.13370484159288   -2.34409366110498   -2.41973327086034
H        -3.08573876188862   -2.83317118925575   -3.78907843594475
H        -5.34182826460893   -2.87525527274332   -2.78968840451661
H        -5.61960117418820   -2.42267971474200   -0.37652437858834
H        -3.64675532107347   -1.93295076256943    1.01616309926321
