60
 energy: -105.770255515259 gnorm: 0.000452117944 xtb: 6.3.3 (4ae9cef)
C         1.70434215226341   -0.98722896839535    2.46444019496302
C         2.52127578339504   -1.12332744586587    3.57136411729050
C         3.61556574937879   -1.97063188700779    3.52391833328857
C         3.88824936496099   -2.67866095559165    2.36640936335317
C         3.07000080433885   -2.54284346845467    1.25862670553891
C         1.97094325546480   -1.69818342144477    1.30054888334396
C         1.08056010659167   -1.53565252355814    0.09471167946742
C        -0.40455578523114   -1.85877547768567    0.38426678298871
C        -1.02405857333490   -2.75343538964987   -0.66599153329122
C        -2.20657765388725   -2.42270090660066   -1.30898711977805
C        -2.74161115278132   -3.26439004493535   -2.26911680363153
C        -2.10351472232108   -4.44817150101035   -2.59052012289498
C        -0.93511405002223   -4.79685767414381   -1.93363689638756
C        -0.40061987008885   -3.95719696515560   -0.97468244820111
N        -1.02154783107062   -0.54259406553943    0.46478267212982
C        -1.92447544406180   -0.22757865588584    1.42934337432425
C        -2.28090612842509    1.23106337835155    1.50698709575869
C        -3.42536193886506    1.73796467446055    0.90726885934453
Br       -4.54423780042009    0.59621846921938   -0.11620209810269
C        -3.77098533443324    3.07316434996407    1.03616180180342
C        -2.96531282394568    3.91548578928615    1.78076813200598
C        -1.82516833733680    3.42451473784848    2.39608302624499
C        -1.48837471633238    2.08944685566644    2.26210338013934
O        -2.39481790422023   -1.05241340738818    2.17812974017710
C        -0.28960497310663    0.38050589588376   -0.35973951194441
C        -0.84764505538111    0.37511177896316   -1.80257705581277
O        -1.95105097103190    1.11535992907542   -1.87373875466890
O        -0.35249438308914   -0.20321410956522   -2.72242998866460
N         1.05353204678717   -0.13528709596844   -0.32588525962715
C         2.14438298908645    0.43003823499100   -0.90397634582313
C         1.93393390023725    1.84797787963699   -1.34617621242776
C         1.71313056561374    2.84417250513286   -0.40075981196697
C         1.55490750931817    4.16199561864721   -0.78903853660784
C         1.61733442839283    4.49783648600889   -2.13233794891010
C         1.85345216707049    3.52215270693435   -3.08289239631957
C         2.02099983858481    2.20304034119369   -2.68666654296508
Br        2.35115940737631    0.88324125349973   -4.00743313982463
O         3.20402090587791   -0.14400338422031   -1.00081274567939
H         0.84891130730864   -0.32719871717633    2.50638134724632
H         2.30430660470818   -0.56792106078060    4.47215824368388
H         4.25520744270187   -2.07521286559235    4.38758511652209
H         4.74400050933486   -3.33560600132796    2.32349407925675
H         3.29250835365678   -3.08358508354036    0.35126780531577
H         1.46653251672864   -2.13961601906027   -0.73341369452157
H        -0.52081532028060   -2.33719079979795    1.36489710400391
H        -2.73029358191649   -1.51447806223218   -1.05446714574095
H        -3.66226322920031   -2.99020415432681   -2.76216609828838
H        -2.51801178338988   -5.10147249817731   -3.34342201044062
H        -0.43856574881865   -5.72667983949932   -2.16782190918612
H         0.50259018068155   -4.24126583417032   -0.45398900863710
H        -4.66534197538901    3.44355959346866    0.55951676673924
H        -3.23359427355205    4.95556983698218    1.88397509562127
H        -1.20079388580111    4.07910568027422    2.98427092756489
H        -0.60765316430157    1.69995655207073    2.75265010263201
H        -0.36701605429686    1.40588752874596    0.02379128738336
H        -2.35463802601095    1.06778680415865   -2.75700208574487
H         1.68837184461687    2.57759791671529    0.64649796811109
H         1.38827962169692    4.92603208028404   -0.04527912246193
H         1.49204682952358    5.52418282264449   -2.44136590841329
H         1.91647430664209    3.77460858364676   -4.12987372927781
