68
 energy: -115.301718892459 gnorm: 0.000399871207 xtb: 6.3.3 (4ae9cef)
C        -2.61606419420786   -1.10145257012502   -0.17164204154015
O        -2.30517790841749   -1.54689182575865    1.07708825638926
C        -3.20278649615683   -2.40919505401145    1.73095006756139
C        -3.78003904287198   -1.42677627301486   -0.85668724027585
C        -4.00560119460459   -0.92419166739371   -2.12727434745707
C        -3.07649270989953   -0.10021066563230   -2.73235144812138
C        -1.91654590051605    0.22847476831736   -2.05277781425070
C        -1.68137662353739   -0.24824593073065   -0.77492721491470
C        -0.41334261333209    0.09674312861554   -0.04334081148881
C         0.79592131660320   -0.65310359623920   -0.63844430696040
C         1.11148183138043   -1.87674073992758    0.17807214448175
C         1.80984140671572   -1.78716467557062    1.36875163545806
C         2.06696279153611   -2.91959455296348    2.12225804906633
C         1.60999518620667   -4.14702715224109    1.68360179958201
C         0.88617061733278   -4.25049078028971    0.50715073470313
C         0.62380616989395   -3.11775864405981   -0.25231623715927
O        -0.10739775989588   -3.11079820377903   -1.40589718948712
C        -0.58420369442002   -4.33389348574459   -1.90834662103778
N         1.86089287603006    0.33897145649641   -0.64222826463192
C         3.14228125524642   -0.00337647767776   -0.93048543241646
C         4.11248400993018    1.11824066680608   -0.83685444130996
C         4.30209149445644    2.16970440462748   -1.67912383136141
C         5.36913543233050    3.00625029887439   -1.28334125434726
C         5.98673043825536    2.58933402450802   -0.14670331186091
C         7.13547227141419    3.21011696290851    0.56483350798058
S         5.26416164369172    1.12856440407271    0.45528506444443
O         3.46550542897978   -1.13295094191348   -1.22819203151855
C         1.38351624778687    1.66239776998553   -0.33544808252106
C         1.98278328266115    2.19409081894629    0.98370222420293
O         2.64743178555768    3.32403835442913    0.80807364588238
O         1.84261958581521    1.64545158143243    2.04179631355868
N        -0.04229890052976    1.49500664626819   -0.16603800207263
C        -0.82331226652821    2.57926200059212    0.07564613993793
C        -2.22460702112004    2.26596802286384    0.43413225529300
C        -2.68685407571984    1.62588381939981    1.54366367456901
C        -4.09420472304101    1.52447364458189    1.56925704581779
C        -4.69470761141639    2.08537222263190    0.48559574259399
C        -6.14204718611029    2.13521210151726    0.15057891601127
S        -3.52320119053813    2.78925747770891   -0.58146910096124
O        -0.38563274418885    3.71007872970282   -0.01313222104077
H        -2.73777511629085   -2.64267114799583    2.68742693659178
H        -3.35302961692016   -3.33590052621014    1.16837588223077
H        -4.17005911380043   -1.92660583232253    1.90431942148771
H        -4.52015537348491   -2.07046413962418   -0.40847639546976
H        -4.91749947225016   -1.18574108515651   -2.64334320630176
H        -3.25252230708865    0.28764156276041   -3.72337597997101
H        -1.18804606413069    0.88126657020086   -2.51084996476640
H        -0.51523093645734   -0.17442584406373    1.01385472161307
H         0.58952735000287   -0.96235334841821   -1.67050383272652
H         2.15514872798928   -0.82214888422577    1.70941716361829
H         2.62124829299031   -2.84027003646405    3.04454702428938
H         1.80960134337139   -5.03884455958264    2.25943798018342
H         0.53377228458790   -5.21995479011099    0.19146832529300
H         0.23504003153837   -5.02120792498250   -2.14138633086991
H        -1.27590069288627   -4.81500584218112   -1.20853300847459
H        -1.11852072530468   -4.08436387388228   -2.82402187142509
H         3.71069464246080    2.33765520808455   -2.56161399891143
H         5.66026408375278    3.88730751399852   -1.82658027078391
H         8.00903682987496    2.55994487827412    0.52170796376749
H         6.89692902242833    3.37498203627080    1.61457153474886
H         7.38666176751427    4.16275281855544    0.10507247101699
H         1.59448264202464    2.39701206845371   -1.12634331031118
H         2.96875954073703    3.68152863295319    1.65238320768081
H        -2.04666994609122    1.24528918061026    2.31901607800944
H        -4.63740635126460    1.04811011490678    2.36642008077679
H        -6.72585342928203    1.67702028732224    0.94507141109653
H        -6.47267068833683    3.16440100983662    0.01917727899451
H        -6.33321994045485    1.60201488472493   -0.78027628234021
