60
 energy: -134.259638672198 gnorm: 0.000594277151 xtb: 6.3.3 (4ae9cef)
C         1.95381614661938   -2.99963781819374   -0.65213311390922
C         1.33686074049337   -3.25517279704445   -2.00146666707577
F        -0.01794955229697   -3.26057286829261   -1.95552990934415
F         1.67519941510309   -4.45037799977336   -2.50501083720753
F         1.66902803614910   -2.35044936706816   -2.92812733817676
C         2.85448050086575   -3.93254633919406   -0.15091401474765
C         3.45000902457016   -3.73770185753335    1.08062364251891
C         3.14465580127918   -2.60759155087877    1.81903824167485
C         2.24812642357468   -1.68163771432938    1.32241966652585
C         1.64582455001162   -1.85280540991274    0.08036118825297
C         0.67711105879612   -0.80688378082538   -0.40252341206154
C        -0.63096856484808   -0.80952747958282    0.41396959870354
C        -1.65823993655421   -1.82428924895796   -0.01978156513992
C        -2.57900246595563   -1.69229272065341   -1.06186229917843
C        -2.67389749170196   -0.46467876816394   -1.92201774134114
F        -3.39150276492807   -0.65558959258734   -3.03128147178139
F        -1.47917467729977   -0.00619215760530   -2.33114554460912
F        -3.26285401918211    0.58371221148161   -1.29282893102698
C        -3.47363839985660   -2.71995050623517   -1.34479685320042
C        -3.45090595541726   -3.89621647369553   -0.62358387094623
C        -2.52647208810352   -4.05058526834433    0.39333061676619
C        -1.65297556004179   -3.02352065110353    0.68856015029376
N        -1.04270220756914    0.59470558846576    0.39780483553463
C        -2.10214365759419    0.94401725946843    1.18790183278754
C        -2.36618262410857    2.39924975354957    1.34811485058428
C        -1.64099828291620    3.33736362995728    2.02691683137236
C        -2.27627985595871    4.59264465216454    2.09519258938933
C        -3.48909417276936    4.58819696391299    1.47453866322201
Cl       -4.55904069400482    5.90366372736332    1.31498408026317
S        -3.88989324342593    3.03733545028256    0.81065889845234
O        -2.81288014151491    0.10257853635269    1.69080081718947
C         0.05074382655477    1.43861709750923   -0.04140618240487
C        -0.16662342865336    2.17445688823049   -1.40638938618373
O        -1.34583392556262    2.74550670172260   -1.58224108952138
O         0.73723551759659    2.28769532315439   -2.17645309363755
N         1.17589568017619    0.54019691567452   -0.12839958697836
C         2.42503889254702    0.88015583164112   -0.60252068289257
C         2.87409371767203    2.25274744106356   -0.31901288147909
C         2.70752847594323    3.02893193758079    0.79563724379016
C         3.38123084086231    4.26047440638274    0.71997671748554
C         4.05534119778675    4.39609213316543   -0.45914460388425
Cl        4.97847898170539    5.74536516249372   -0.93889522826728
S         3.89367035136870    3.01365372214598   -1.48558741890632
O         3.14396652631743    0.05518776920487   -1.12032591767184
H         3.09128020493005   -4.80978643400592   -0.73225515679055
H         4.15338365746071   -4.46336410504448    1.45734376065233
H         3.60834651184465   -2.44450693795964    2.77994760860706
H         2.02434005402663   -0.79276309383296    1.89325986630911
H         0.47917688789318   -0.91326879526408   -1.47276001778795
H        -0.38163716565230   -1.05798002737809    1.45696733906321
H        -4.18671157848235   -2.59437788156124   -2.14436814558258
H        -4.14882961788290   -4.68406866963513   -0.85811262542795
H        -2.48941910338866   -4.96608699392354    0.96315964854060
H        -0.94203132959636   -3.14960831204689    1.49166258222156
H        -0.69538465209369    3.14102164056308    2.50079868512783
H        -1.85726806483314    5.45359980279581    2.58098371865108
H         0.24478258789486    2.24324934241676    0.67936502377506
H        -2.02595881418632    2.49153136423098   -0.93617522518489
H         2.16338675309540    2.71619000912629    1.66938550370299
H         3.37346167323396    5.00588835852364    1.49334661090168
