74
 energy: -123.311726867361 gnorm: 0.000422188536 xtb: 6.3.3 (4ae9cef)
C        -2.14945216457282   -1.28114907180292   -0.19985713006022
O        -1.59542559529407   -1.93828692170783    0.85774376252018
C        -2.03416233243114   -3.24175167918021    1.15021644367257
C        -3.12363059226136   -1.81426739061183   -1.03495293437362
C        -3.62281665425974   -1.06844378319964   -2.08943121035250
C        -3.15193869856523    0.20770249693801   -2.33165487180773
C        -2.18209962611137    0.74334683338899   -1.50237434807207
C        -1.68862690662254    0.02297936734016   -0.42861876067570
C        -0.62386917300236    0.59478952637205    0.46717759842608
C         0.75895157646232    0.51822707798998   -0.22867796160391
C         1.51799451552199   -0.69825199432067    0.22998155722328
C         1.92622588584625   -0.80432260309292    1.54995642566752
C         2.62214599959994   -1.91706683738361    1.98786819371202
C         2.90956466030194   -2.93371064767431    1.09771507521852
C         2.49899013653889   -2.84988066269554   -0.22199024972801
C         1.79346131965042   -1.73884884416312   -0.66645515762035
O         1.34441063413802   -1.57693053844972   -1.94777436843113
C         1.69550253185268   -2.54317688776337   -2.90861661628024
N         1.39918188362121    1.77084933183341    0.13372717546087
C         2.72740864542154    1.99780527231242    0.30672465228949
C         3.62617653331360    1.05019915243246   -0.37819992214150
C         3.66199729154123    0.73803865643289   -1.71004329396825
C         2.88431121354727    1.24955670008636   -2.86854548583404
O         4.63153030904457   -0.17452369674175   -1.93835768899463
C         5.22920137494161   -0.45317729321955   -0.75355527310872
C         6.33635067077372   -1.44481155420281   -0.73695273809539
C         4.66149534712067    0.28589168103159    0.23492008032029
O         3.11058084977442    2.95529240166363    0.95549338754325
C         0.47406406511684    2.69926925431036    0.74435403566004
C         0.93538958803178    3.01973590894671    2.18153728942131
O         1.01538134002103    4.31645769559731    2.40366975219527
O         1.11380185806328    2.16720839173532    3.01192688151928
N        -0.79058764793991    2.00561223381287    0.75334723632439
C        -1.93740441020726    2.67845201620213    1.03526526443581
C        -3.15335945561707    1.85700998651940    1.18402229170950
C        -4.37010048397346    2.13375606924753    0.61904283591169
C        -4.78473487678466    3.22023368135785   -0.30185515842295
O        -5.26706562792156    1.19183009095288    0.97365056877365
C        -4.64310862842965    0.31538571014114    1.79831355308335
C        -5.42974570108826   -0.82370335286130    2.34042979267773
C        -3.34353606634742    0.67595627655739    1.96194220060050
O        -1.94325856047290    3.89208088580884    1.14123889153439
H        -1.82683201345736   -3.93049283172118    0.32515199752302
H        -3.10299194837382   -3.26347428275648    1.38548224510548
H        -1.46446690018752   -3.55092514195751    2.02517189020951
H        -3.50243732480222   -2.81081052887380   -0.87198490237572
H        -4.38402107113288   -1.49626173451792   -2.72471154628106
H        -3.53609781578164    0.78318440281073   -3.15972385850984
H        -1.81398224724632    1.74381573905627   -1.67544796444411
H        -0.58460960114761    0.01963060702084    1.39910349256106
H         0.61936567943242    0.47516887949111   -1.31498083057504
H         1.71617951714125    0.00590823449591    2.23333735055656
H         2.94039045941115   -1.98506918866599    3.01643972824961
H         3.45818621543319   -3.80495125736854    1.42398645757825
H         2.73580313642885   -3.65770896112428   -0.89622948968549
H         2.78184608295239   -2.61898252041458   -3.01970547404142
H         1.28156362267350   -3.52634760447890   -2.66408781151022
H         1.26007749907074   -2.19787591078400   -3.84549212000993
H         2.37632124229131    2.16867252410134   -2.59175110460705
H         3.55208389884379    1.44363609926660   -3.70607184963961
H         2.14400482313298    0.51575408723737   -3.18743060850275
H         6.08548091407608   -2.29733861766472   -1.36490857600735
H         7.25671273533684   -1.00232170913197   -1.11881498511016
H         6.50616862602033   -1.78306488081122    0.28053991496648
H         4.91454461557354    0.28995635671918    1.27404006428921
H         0.40370946670098    3.64701773646859    0.19061248974517
H         1.31772189255798    4.49806784372814    3.30781661782169
H        -4.86145555296610    2.84717969263730   -1.32367497660610
H        -5.75685167677858    3.61004183467486   -0.00760719515430
H        -4.04667426807663    4.01570826265880   -0.26196920285780
H        -6.30218476880758   -0.46113755878920    2.88215830462628
H        -5.78052249742859   -1.46105895226618    1.52875197334925
H        -4.80921778213152   -1.40729585602009    3.01370599083781
H        -2.61700998708975    0.18601129710337    2.57594220217099
