23
 energy: -31.553466102889 gnorm: 0.000338716755 xtb: 6.3.3 (4ae9cef)
C        -3.95830104007130    0.37823185485677    0.30306916027490
O        -2.95628403563396   -0.29538905707358    1.02272187839350
C        -1.69728376669808   -0.34126045077990    0.49739408835617
C        -0.75429985052200   -1.05531222926243    1.23738703254516
C         0.54417621960482   -1.16863176169494    0.79003280081389
C         0.94382084735879   -0.57821291362334   -0.40440771677422
C         2.36397933426270   -0.68607763775930   -0.87914204540087
C         3.25275214506294    0.41662578250144   -0.37450352188555
C         2.88261773810162    1.40291694578290    0.41901360558350
C         0.00296418224069    0.13590507266692   -1.12913716550548
C        -1.30609230639685    0.25859356838584   -0.69313956536938
H        -4.86964196108240    0.26198409313815    0.88750420181670
H        -3.73170793836663    1.44437257715890    0.19638969206928
H        -4.10657109950965   -0.06190146178129   -0.68862771986704
H        -1.06915592419653   -1.51427074620947    2.16131951786162
H         1.26192297318894   -1.72408299941651    1.37624383656362
H         2.79096638128416   -1.64100003779890   -0.55668612359930
H         2.39214327410523   -0.67179924332230   -1.97330573445024
H         4.27754001145835    0.35173929132343   -0.71982981075272
H         3.57771022556614    2.15976959350917    0.74115426292529
H         1.87195551670690    1.49519281436160    0.78031467983847
H         0.29266530938000    0.61037206660126   -2.05606706828143
H        -2.00587423584405    0.82223487843551   -1.29024728515589
