62
 energy: -117.776352435997 gnorm: 0.000625317071 xtb: 6.3.3 (4ae9cef)
C        -2.23360261477781   -1.35542372280359   -1.91948230412090
O        -1.65263649774220   -2.44273954720893   -1.32815192817108
C        -2.02013840858182   -3.72616186484980   -1.77194795597989
C        -3.10009352790234   -1.41356501557980   -3.00235783467969
C        -3.61032817570504   -0.24523855327297   -3.54510986937849
C        -3.25739150832006    0.98438056590367   -3.02485988606768
C        -2.39568349210880    1.04956098822472   -1.94210843617440
C        -1.89221436994911   -0.10807588896693   -1.37728399290599
C        -0.95621272972003   -0.08745668104998   -0.19457574121895
C         0.52048483088300   -0.02235681862573   -0.64206439565090
C         1.25282486283491   -1.30167842307638   -0.32880869115045
C         1.62212263228544   -2.16035973126126   -1.34988078828052
C         2.29372559003708   -3.34044116575923   -1.08122943754051
C         2.60378226458546   -3.66195158015623    0.22640196450522
C         2.22838140532543   -2.82685190840366    1.26480316718171
C         1.53849594936790   -1.64952093239833    1.00234093832772
O         1.12289040435296   -0.77230827163459    1.95702068157363
C         1.37629590955031   -1.07116293767576    3.31186363503144
N         1.06238600166219    1.12777878406713    0.06754044082786
C         2.35931704694609    1.35753318791537    0.31814137472459
C         3.33359335306477    0.52126624699712   -0.41184076950916
C         4.44823155122207   -0.13256726369377    0.05042691936870
Br        4.98481212866546   -0.27569223017223    1.82821953805594
C         5.05999633875644   -0.74581479314816   -1.06831228273201
C         4.28361868285949   -0.40095357854373   -2.13027470331430
O         3.24682364466747    0.35700439144198   -1.74706589170936
O         2.72966653196350    2.23665712702587    1.09443736825223
C         0.05654752455584    1.83547670081675    0.83843795785417
C        -0.10122588651472    3.30490832422147    0.33195022947249
O         0.91102331791870    4.08938351297095    0.63142997079563
O        -1.07330862943522    3.66668284820024   -0.26604891073123
N        -1.13590505091447    1.06594109139396    0.66833743399157
C        -2.35261757236982    1.28188504872726    1.23259108564533
C        -2.51582504892435    2.48415208113040    2.06288357759335
C        -3.70037453140246    3.08806767142869    2.41803984573360
Br       -5.41630859523237    2.53806831323900    1.95948510881777
C        -3.37016253321136    4.22667466499592    3.19133734427171
C        -2.01259146217449    4.23212651271052    3.25907686994234
O        -1.48840556823558    3.19379160002442    2.58932977836357
O        -3.28397394115000    0.52182290323576    1.04840732503877
H        -1.46079623179604   -4.42116143670136   -1.14705560752490
H        -3.09213628093897   -3.90376318610414   -1.64433515984019
H        -1.74505578187049   -3.88356323379992   -2.81967099127245
H        -3.38903951002001   -2.36202227091674   -3.42698325563033
H        -4.28886878052258   -0.30653734914830   -4.38289069262218
H        -3.65382483975963    1.89235748410385   -3.45118362273111
H        -2.12765977501248    2.00911495975394   -1.52644960459787
H        -1.13732978205979   -0.99756800575274    0.39051261904984
H         0.56980293491404    0.16960501952008   -1.72140274715246
H         1.37915750569918   -1.89430135386653   -2.36786590071593
H         2.57706808096815   -3.99795204567560   -1.88812275675137
H         3.14026521918409   -4.57130161254073    0.45039749350611
H         2.48034676929245   -3.09905854478663    2.27662025199831
H         0.90640309089221   -2.01356977450141    3.60674082958454
H         2.44958430560908   -1.10974244613584    3.51854334895780
H         0.93101896217963   -0.25547837514598    3.87916260254964
H         5.94710941309136   -1.34348476113610   -1.06153147676647
H         4.37141794663376   -0.61773327220842   -3.17609478096333
H         0.37833558787686    1.87295403898692    1.89493028591807
H         1.67904400628151    3.58662397482224    1.01571328199249
H        -4.05731693650086    4.92485810211899    3.62120293288070
H        -1.32354073128775    4.89888343272416    3.73866721407947
