72
 energy: -121.675988156935 gnorm: 0.000692883780 xtb: 6.3.3 (4ae9cef)
C        -3.96568313488000    2.07426086873021   -2.17235411447102
C        -3.45731296270108    1.59524179812026   -3.34570673129697
C        -2.20699395353076    0.96148961280030   -3.35447310413310
C        -1.48464102679773    0.82795109914332   -2.20118380865293
C        -1.97182284502225    1.32095359555020   -0.97033881542470
C        -3.24887417338028    1.94812840425070   -0.96373663563027
C        -3.78616241896346    2.43089802261445    0.24705951872310
C        -3.09405034634847    2.29613434699567    1.41527555748510
C        -1.82964254419328    1.69578941927462    1.41265455884412
C        -1.25817565670481    1.22726178260035    0.25581603867091
C         0.09516704627571    0.57476719761009    0.35820685108254
C         0.02619797354190   -0.95692072791117    0.16795163551365
C        -0.03881058492060   -1.65386318117524    1.50459243141768
C         1.12433599948300   -1.88418308614669    2.19498230515186
C         1.11491798560865   -2.51636113206710    3.44415282683332
C        -0.06799283637919   -2.89935855028307    4.00716707730708
C        -1.28970602183293   -2.64525092318314    3.35105491093190
C        -1.28908501568517   -2.00670878025140    2.07937155587500
C        -2.53800854884255   -1.74199322013152    1.47428513590233
C        -3.71003711304664   -2.09393542562007    2.08358815410115
C        -3.70461047865305   -2.73525092807277    3.33007047562718
C        -2.51703744639940   -3.00421310532503    3.94736870226326
N         1.23541724507924   -1.26771400983829   -0.58284043005551
C         1.56822912532151   -2.55274413471513   -0.87634721266622
C         2.85123602507456   -2.68592356980179   -1.61366336772488
C         4.07938913587835   -2.93729032240649   -1.07755394377490
O         5.00850336811136   -3.02098338339563   -2.03989427169240
C         4.37842918513496   -2.83738616161812   -3.21350592875067
C         3.04524843557055   -2.62674756313288   -3.02835157852484
C         1.99454807766708   -2.39422579001075   -4.05685642679982
O         0.87555186589280   -3.49061379815265   -0.54893615119038
C         1.90582384967006   -0.09206138920880   -1.07118135081260
C         3.31062890138542    0.09389046293354   -0.46183139245547
O         4.25104800383589    0.11376162997391   -1.38972431899656
O         3.51018761410662    0.22921543510698    0.71471905761150
N         1.06609763873971    1.00254519803035   -0.63393871955117
C         1.39629173352074    2.27454348987277   -0.97754568220753
C         0.59289396877428    3.32849232515226   -0.31703999044367
C        -0.37101898272214    4.11889388605841   -0.87105798243363
O        -0.85569249737110    4.97646020172758    0.03436325284509
C        -0.18797750733949    4.76063434854375    1.18156421257135
C         0.72582313191770    3.75865496530364    1.03890655002394
C         1.68471449002540    3.24006889823543    2.05512295177671
O         2.29162218348341    2.49760030857943   -1.76802324329609
H        -4.93105967428148    2.55908507953778   -2.14833131921460
H        -4.01136852005603    1.69628192368285   -4.26700077701916
H        -1.81416782483596    0.57640439245512   -4.28394877483775
H        -0.52747124155822    0.33631103598302   -2.24176437282361
H        -4.75696225629927    2.90418504176620    0.23029594633558
H        -3.50637556640042    2.65500582782429    2.34590801464403
H        -1.29382787020463    1.60344091681352    2.34607367441319
H         0.50040997887762    0.77371803443184    1.36035872457225
H        -0.83483802575047   -1.24406270789008   -0.44517645063732
H         2.06990086089451   -1.57642191219219    1.77293535476901
H         2.05090639057243   -2.69575722963656    3.95160688134598
H        -0.08893284017535   -3.39372025149389    4.96779027040584
H        -2.58469758473211   -1.24324924594464    0.51898972405083
H        -4.65222518043879   -1.87704502929356    1.60175038184454
H        -4.64058043684580   -3.01060111661142    3.79334915412972
H        -2.49617277958965   -3.49470453544125    4.91026343038880
H         4.39575830281344   -3.07070036493763   -0.06220037756901
H         4.97285768907626   -2.87922429494308   -4.10418872570282
H         1.07747392779250   -2.90876737138867   -3.77593231442804
H         1.77470615639804   -1.33005356008960   -4.15487993680662
H         2.32792844567626   -2.76077514311451   -5.02417748743898
H         2.02005744534386   -0.08254501333781   -2.16585011034277
H         5.12585165306005    0.30270948548568   -1.01143622573778
H        -0.79041489715027    4.13879807714373   -1.85676404423159
H        -0.44062863081184    5.37614349222774    2.02176483053885
H         1.15332742605693    2.83651086689652    2.91644355426687
H         2.32767444194390    4.04410064931577    2.40981825178579
H         2.31390172224020    2.46102283799880    1.63211516372654
