19
 energy: -24.320286004323 gnorm: 0.000381370964 xtb: 6.3.3 (4ae9cef)
C        -2.15687833812384   -0.58791905673163    1.21678895349146
C        -2.42598788797035    0.14675257041492    0.15505205107804
C        -1.41821305369415    0.69135351156086   -0.81880116510865
C        -0.00122946705669    0.32360070587392   -0.48573189621553
C         0.76425347437611    1.13513797840809    0.34175655806835
C         2.06385826328560    0.78775450530103    0.66509988261829
C         2.61557895865848   -0.37938819791548    0.16516263860692
C         1.85964242862949   -1.19696017073628   -0.65744454549522
C         0.56028775371449   -0.84710260884392   -0.97912469053718
H        -1.15006541800183   -0.86693643169356    1.47946712721113
H        -2.93698923515507   -0.94240808058432    1.86910910970426
H        -3.45107828981168    0.40791411397556   -0.07886535093773
H        -1.52333071927734    1.78075431831070   -0.84256804833317
H        -1.67392076695759    0.31899529644441   -1.81598989454377
H         0.33654625530322    2.04593268711622    0.73667318984978
H         2.64872237392969    1.43053553164941    1.30708457486151
H         3.63151674374691   -0.64928362365478    0.41331622959214
H         2.28454441472506   -2.10886176277098   -1.05148719277278
H        -0.02725849032046   -1.48987228612413   -1.61949653113785
