82
 energy: -119.691176737343 gnorm: 0.000244208078 xtb: 6.3.3 (4ae9cef)
C         2.58410995384307   -4.72292719760823    1.97006612815368
C         2.01348448208203   -5.63438361799250    1.12944073363252
C         1.24466189285429   -5.19227243030828    0.04394337697981
C         1.05690574686750   -3.85744620474260   -0.17974754742337
C         1.62289864292463   -2.88332965695440    0.67253707196013
C         2.40503537585833   -3.33754950306211    1.77111999076910
C         2.97793499110972   -2.40267706647960    2.65733978601220
C         2.77029983809826   -1.06424842482928    2.48567655830700
C         1.98476343102931   -0.60901521336584    1.42007536025161
C         1.43335312244261   -1.48411657810846    0.51702235062528
C         0.56430795849589   -0.92282846419662   -0.58110193031216
C        -0.84858546159870   -0.57640147829778   -0.05651595289404
C        -1.85364210220285   -1.59958133510469   -0.52570327569510
C        -2.46856376869258   -1.42619999131001   -1.74064020758062
C        -3.36895139124631   -2.37306258994205   -2.24454425203386
C        -3.63197719885931   -3.50881712752530   -1.53396813384241
C        -3.00663013081548   -3.73961197377135   -0.29141161721603
C        -2.10753176341688   -2.77168610643010    0.23725216879958
C        -1.50310840647180   -3.04312688093278    1.48521794284921
C        -1.75375545774061   -4.20766067528433    2.15506503519089
C        -2.63182421751104   -5.16299356893555    1.62477860889044
C        -3.25002507069319   -4.92711623585600    0.43067290930750
N        -1.09560700151401    0.75916893327983   -0.56314587645721
C        -2.06923712133296    1.61745745595722   -0.16665372715777
C        -3.24573680113952    1.01719814564983    0.56335979953293
C        -4.15221444960409    2.09823277817752    1.14946618228465
C        -3.50625429811383    2.78358358166193    2.35159596439414
C        -4.41308468464575    3.82594165142996    3.00522541411340
C        -4.69033373787633    5.02486290291613    2.10591794635838
O        -1.96827849305071    2.79735332323545   -0.45626737698144
C         0.06628867990645    1.34786195229319   -1.20133160527811
C         0.42155735797049    2.65061613813312   -0.44867826030671
O         0.55847288075342    3.68281605606319   -1.27248712196985
O         0.64060006801735    2.68817795324132    0.73112886464137
N         1.08178146676269    0.33635848811529   -1.10409645261338
C         2.31876976341656    0.34491193415564   -1.68173458968100
C         2.77426281232035    1.68264006081964   -2.22056236061025
C         4.11815090880204    1.56138326750530   -2.93379600809035
C         4.57002336728766    2.87210946422810   -3.57604659974044
C         4.76161463816529    4.03465589395411   -2.59976514605876
C         5.80170172703416    3.75040143003961   -1.52246646052429
O         2.99043449349918   -0.66299956900180   -1.71348534821289
H         3.18273412838533   -5.04788752061363    2.80940667338623
H         2.15126891739035   -6.69348372981321    1.29042548291164
H         0.79724452792430   -5.91733816589156   -0.62006283205714
H         0.45681258659642   -3.55664551895044   -1.02397745404757
H         3.57722306959913   -2.76778778955815    3.47918203074090
H         3.20091493954822   -0.34681315470166    3.16814513412169
H         1.81172261072088    0.45235412095722    1.31117391349334
H         0.50160956545868   -1.63037070435025   -1.41575292571830
H        -0.82651954642453   -0.53050360855257    1.03912580401621
H        -2.25873021494384   -0.53888259990662   -2.32041514507604
H        -3.84246243674382   -2.19723018361437   -3.19877912421844
H        -4.31659892490148   -4.25211965856621   -1.91571048452935
H        -0.81905520829295   -2.33357088602423    1.92227522456937
H        -1.26957374795194   -4.39706861352648    3.10132929744011
H        -2.81619647843399   -6.07794029691794    2.16764906555875
H        -3.93498642479819   -5.65087091877421    0.01260152366250
H        -3.79995878633266    0.40226518400477   -0.15064849346320
H        -2.88451284097911    0.35537930776970    1.35335100988746
H        -5.09920531431736    1.64566475900089    1.45184981633604
H        -4.35209950348288    2.83593757168794    0.37272437847980
H        -2.57955640186523    3.26177375492556    2.03066832769130
H        -3.25125427040841    2.02453206105865    3.09686742830568
H        -3.93102664728828    4.17618675832136    3.92104791929371
H        -5.35859814639320    3.35665946303696    3.28904963551601
H        -5.28773663023986    4.73841021670487    1.24465502350780
H        -3.75623574385297    5.45137317998168    1.74833024165075
H        -5.23331194052064    5.79168105358796    2.65432052497288
H        -0.16224929314651    1.61787562652958   -2.24742917750287
H         0.69843154759265    4.50280740629175   -0.77273482002918
H         2.02028546108407    2.08566153540201   -2.90080702570448
H         2.85974789173263    2.36487991519980   -1.37289489010121
H         4.86572816579304    1.20691469028771   -2.22465709174772
H         4.03123476477827    0.79881614118749   -3.71028099998721
H         5.51491462376672    2.69136957850916   -4.09359422557704
H         3.83452745621047    3.17004037880601   -4.32811716394855
H         3.80794310203765    4.28474891561265   -2.13095530682546
H         5.07722889892506    4.90951293723912   -3.17391772773617
H         5.46992848441805    2.95959091127119   -0.85486766242607
H         5.98142448375295    4.64268997367885   -0.92649531304165
H         6.74287023261136    3.44570738790476   -1.97483193417852
