66
 energy: -115.337232971379 gnorm: 0.000731010779 xtb: 6.3.3 (4ae9cef)
C         2.14033584939047   -1.11937765283599   -0.84601469221799
C         3.38509207492250   -1.29305661807083   -1.37728603348100
C         4.31273979356514   -0.23142887356295   -1.41473347774758
C         5.61081773573772   -0.38351745550256   -1.94355157164528
C         6.48529147516164    0.66694576382812   -1.95784457313824
C         6.10199815825192    1.91608197387873   -1.44415447849837
C         4.85011844551971    2.09557168097456   -0.92645237822115
C         3.92432474966241    1.03180942244254   -0.89826726330005
C         2.63004610583734    1.18094013860223   -0.36257952310277
C         1.75132279413334    0.13063552639397   -0.32473799707165
C         0.37529957842373    0.30789782271855    0.26904124902250
C        -0.71712508974017    0.28600472931615   -0.82180340252596
C        -1.93038675692175    1.15028484677557   -0.57077479885739
C        -2.25058855096767    1.68931065681438    0.64657557779165
C        -3.44863639740882    2.41181448141178    0.83084392730838
C        -3.79658114594234    2.96598627232132    2.08030997288491
C        -4.96628799474889    3.65624242577748    2.23591479288096
C        -5.84061468781360    3.82325493030517    1.15041167492515
C        -5.53205595028402    3.29493518496907   -0.07216606100109
C        -4.33433651501210    2.57657433387759   -0.26451578079415
C        -3.98370067562658    2.00839006814455   -1.50758228710903
C        -2.81829820529388    1.31558890344512   -1.65549489478724
N        -1.14462682744487   -1.10921446472405   -0.82329501528403
C        -1.12288950848759   -1.85255267990633   -1.96857755813150
C        -1.43004332851562   -3.28484192084864   -1.81265943332090
C        -2.41852460181848   -3.88558070834255   -1.07933751436292
O        -2.40021503261198   -5.20861706917572   -1.26506315008944
C        -1.39682823250287   -5.48308664356002   -2.11640792920030
C        -0.76772952796310   -4.34275893775631   -2.50024325045246
O        -0.87512437733342   -1.34347694410103   -3.04259242417407
C        -1.10079056601612   -1.55501410782995    0.53832404872844
C        -2.42916157477311   -1.27867395577708    1.26285875038604
O        -2.25184456347426   -0.77241515480148    2.47524937925863
O        -3.50397747061043   -1.53685407696701    0.79522392262567
N         0.00313754469092   -0.81620244724639    1.12088026156079
C         0.82193597381752   -1.44539159478917    2.00938227315300
C         2.00491860218136   -0.67129664919832    2.43789897908187
C         3.28589280043886   -1.14587285782241    2.48972157970015
O         4.12461646076220   -0.20266735247454    2.92849982040893
C         3.39097097899317    0.89003995426276    3.19160491113279
C         2.08040324830404    0.66964687662425    2.90974711659297
O         0.57622967905207   -2.56376825466768    2.41659558139067
H         1.44910237144624   -1.94846997991031   -0.81678802632759
H         3.67780964102249   -2.25371062467109   -1.77523633358151
H         5.90087237023502   -1.34704835940042   -2.33742607195101
H         7.47836203425757    0.54440961625578   -2.36447895441174
H         6.80668697726351    2.73453663124928   -1.46296785500196
H         4.54953861295219    3.05515229386280   -0.53044204911300
H         2.34169105331188    2.14547995459789    0.03243196261052
H         0.34724101520918    1.24873771536150    0.82452567056600
H        -0.30160054520101    0.50987371113564   -1.81016738188587
H        -1.60542756405064    1.57035393387426    1.50500205170642
H        -3.11960983978341    2.83620328242926    2.91396688810146
H        -5.22631954426191    4.07880272526786    3.19550417006705
H        -6.75987012932877    4.37269328164867    1.29127903285373
H        -6.20284438479363    3.41854186616842   -0.91044683359534
H        -4.65849932893557    2.12810359464567   -2.34250670169078
H        -2.55821088057051    0.87161105780590   -2.60464965045782
H        -3.18421158834680   -3.47153212137178   -0.45314084698549
H        -1.23367674634556   -6.51135791426217   -2.37010104185827
H         0.05779300505462   -4.23852534627986   -3.17276337100621
H        -0.91653886541311   -2.63715279333687    0.62784742434594
H        -3.10446592457997   -0.65085530955969    2.92500752427967
H         3.69307434212227   -2.09962442076123    2.22107216838947
H         3.90607214179327    1.74946035459885    3.57229378999115
H         1.26791130940048    1.35203027773716    3.04923710464148
