80
 energy: -132.277851868114 gnorm: 0.000493945643 xtb: 6.3.3 (4ae9cef)
C         4.66601208795757   -2.38204784966712   -0.16565363537830
C         4.48090153486287   -2.95784733630800   -1.38928250636519
C         3.25607100285821   -2.79966982692818   -2.05311337447679
C         2.25594994917283   -2.04962133303279   -1.50120877649751
C         2.41683543912507   -1.42111330749676   -0.24660582376872
C         3.64552877181417   -1.62070839894581    0.44190189605997
C         3.82912288689965   -1.06590029535344    1.72442009237506
C         2.83404062407996   -0.34393407701301    2.31829598331611
C         1.63757194207637   -0.10866842183606    1.63233894618556
C         1.42853071806113   -0.60552090549934    0.36821007301238
C         0.14106715073515   -0.22611344263185   -0.32433748412722
C        -1.11267883595828   -0.75557299799875    0.41701825693079
C        -1.94168591604116   -1.65422090283450   -0.47412599076737
C        -3.09054002282958   -1.19188931043401   -1.06086093303233
C        -3.85446096643595   -2.00269956820572   -1.91163941852514
C        -3.45287595312719   -3.27743466136596   -2.18602849060742
C        -2.27443194334057   -3.79547635272928   -1.60964000304376
C        -1.50561232875810   -2.98310754357269   -0.73155272510865
C        -0.34156263844632   -3.54151588259751   -0.15930179187191
C         0.05077938247695   -4.81702196795732   -0.45687932383081
C        -0.70210516774846   -5.60960228312725   -1.33448634217573
C        -1.84410380942157   -5.10901587933971   -1.89171697549058
N        -1.83327303964964    0.43373709421978    0.84035503273749
C        -2.60408806578926    0.36242397312364    1.96780072734332
C        -3.38145583501314    1.58193306542547    2.30110577821727
C        -4.19663872740110    2.20448474844138    1.36597936056508
C        -4.93313467437694    3.32430817179286    1.70099757993678
C        -4.85804552822270    3.84571258602639    2.98908587236244
O        -5.51189210513782    4.95406839458472    3.41793907693825
C        -6.25962569210298    5.69836405899441    2.48518806933927
C        -4.06916113287822    3.19670161823429    3.94266068883106
C        -3.35175044949619    2.07261890201041    3.60486491937647
O        -2.66411739289558   -0.66155251820112    2.61832391814438
C        -1.35620761987777    1.61091898646116    0.16117933594680
C        -1.24595911136171    2.86008742716416    1.06426089954401
O        -0.50989001180793    2.60339637933928    2.15122072756466
O        -1.86334151575919    3.87129712009145    0.88929692089242
N        -0.04524754612506    1.21767330264209   -0.32432009109859
C         0.91023468789711    2.16614663814415   -0.44615247718131
C         2.23100366314131    1.71855819799913   -0.95824428800136
C         2.35879220876722    1.09035173348415   -2.18780796489926
C         3.59541539121594    0.66653758363370   -2.64044007817085
C         4.72600170582751    0.85607207375750   -1.85242961151749
O         5.97683769121146    0.43983932236411   -2.17383443158109
C         6.16343714627372   -0.27228652301228   -3.37406375765949
C         4.60257590392808    1.53009534506634   -0.63473514654092
C         3.37348009407809    1.96990393546663   -0.20215975196223
O         0.66432247113666    3.32448527426180   -0.14928317259674
H         5.59904895156000   -2.50612438631731    0.36450335470118
H         5.26509842615308   -3.54499314863511   -1.84485662922840
H         3.10405060619036   -3.27811444126086   -3.00998023181052
H         1.32321452386987   -1.96257044766501   -2.03597859095797
H         4.76912673300957   -1.23167857599430    2.23004171175276
H         2.96440095228074    0.06405643914042    3.30913775931667
H         0.87756377873485    0.50110708938581    2.09936925676418
H         0.12459614926320   -0.58620758904059   -1.35748231694031
H        -0.84284003533760   -1.30772993589036    1.32496302604355
H        -3.42960419640943   -0.18701947567100   -0.86077470129476
H        -4.75876789277617   -1.60459509437454   -2.34737049398064
H        -4.02992376438176   -3.90936283208409   -2.84551238086678
H         0.25254273563680   -2.95948136121051    0.52627647409419
H         0.94786541412286   -5.22043214326592   -0.01083161498460
H        -0.37760617350697   -6.61527289341446   -1.55761077789429
H        -2.44062210179694   -5.71284637808823   -2.56081045977213
H        -4.26956172197471    1.81127597110454    0.36301473605065
H        -5.55148801734556    3.78643675249912    0.94881864440402
H        -6.63574674238365    6.56173171500435    3.03166456397956
H        -7.10514373833512    5.12188758745360    2.09614725392902
H        -5.63453191110434    6.03786977716906    1.65396892459036
H        -4.03812248946649    3.60159742266428    4.94189944974863
H        -2.74335139050897    1.56809863744255    4.34023798271183
H        -1.99861305131071    1.88974482068968   -0.69423133108823
H        -0.43927341296941    3.40478369787963    2.69204357853176
H         1.48837945422029    0.93901266336091   -2.80911860347205
H         3.66215642166741    0.18249843600495   -3.60145943450584
H         7.22138244827671   -0.52780950223786   -3.40242938390957
H         5.56607417708699   -1.18915909020571   -3.38842371250597
H         5.91724798019358    0.34034253351394   -4.24710622926907
H         5.49199417326556    1.69315598339350   -0.04766719978941
H         3.27982729051665    2.49262742190233    0.73701758618369
