54
 energy: -96.147747531302 gnorm: 0.000687712468 xtb: 6.3.3 (4ae9cef)
C        -0.88211905866746    0.88815092427089   -2.80548269003679
C        -0.95984647277537    1.19212755434634   -4.15493602653111
C        -0.02923174672677    2.03373749478431   -4.73763647713512
C         0.98500051374908    2.57417025903044   -3.96445299778521
C         1.06375533936364    2.27519436571298   -2.61692168775825
C         0.12975087797096    1.43094791984146   -2.02422699743511
C         0.31824140196068    1.08990546656500   -0.56223527169949
C        -0.92957299073852    0.54778986601455    0.16389517431118
C        -0.95717163295266    1.02387311107517    1.59805379517824
C        -1.73747575729949    2.12009595125402    1.94168329057477
C        -1.76690885966962    2.57821320131569    3.24615520871736
C        -1.01387086143644    1.94559267216462    4.22067903751015
C        -0.22663480781498    0.85870059350296    3.88251809059917
C        -0.19552581528245    0.40059687666802    2.57730396619869
N        -0.76838436497976   -0.89451886084308    0.06246779792023
C        -1.44532813430716   -1.85651131345034    0.75045489377170
C        -2.73711335724538   -1.49402230806662    1.34228514880237
C        -3.47461015538292   -2.24046635198902    2.22841248868976
C        -4.63569170222234   -1.49164258336769    2.50590538180089
C        -4.52665152597329   -0.35139347273771    1.76709808209286
O        -3.38947964675881   -0.34238361532502    1.06320207576618
O        -0.99461755027578   -2.98353432311915    0.86449955551131
C         0.52423381438922   -1.23627447699622   -0.49350729832601
C         0.37102540690057   -1.76083204673843   -1.93390137887334
O         1.51470133460745   -1.65375660567726   -2.60783619820072
O        -0.63414256353747   -2.22269838215198   -2.38882799948972
N         1.26620843662704   -0.01292782591045   -0.43377238221566
C         2.59315425026635    0.21748619346246   -0.26268805508718
C         3.50233127597131   -0.92807262418356   -0.14911294108724
C         4.86323712027641   -0.86326451262143    0.03198697248569
C         5.32398309355355   -2.19437320850840    0.06468281001562
C         4.21807167860348   -2.97386793947929   -0.10193452158276
O         3.11766515592430   -2.22386476756448   -0.22883715041987
O         3.02730995220589    1.35607311657868   -0.20180279974026
H        -1.61381938341529    0.21737828640636   -2.38189956716909
H        -1.75127661288242    0.76209777091530   -4.75072221364196
H        -0.09320573361468    2.26655958263111   -5.79034512721865
H         1.71686374396081    3.22999305805968   -4.41192807696195
H         1.86075207494428    2.68278085686741   -2.01363473894526
H         0.74208592173441    1.95526525030490   -0.04209310064280
H        -1.84345196213711    0.87458919836409   -0.34003807684848
H        -2.32794489387316    2.61107264087378    1.18154955187998
H        -2.38175327788705    3.42798090786324    3.50332249975823
H        -1.04048167848225    2.29886217657038    5.24057175479406
H         0.36609852048603    0.36333110665307    4.63683082219745
H         0.41974950644796   -0.45124424780525    2.32717085357699
H        -3.20039604699893   -3.19917364805622    2.61630502281264
H        -5.43921066842481   -1.76233467496937    3.15910522207489
H        -5.17407778086633    0.49704988470110    1.66151862879685
H         0.97198296562618   -2.05261713839697    0.09127492072788
H         1.41455971402997   -2.00018700136193   -3.50934758886138
H         5.43616543203536    0.03495284133931    0.12860892866161
H         6.33358381612377   -2.52667358459700    0.19088150283954
H         4.08948669486733   -4.03793061422132   -0.14030111437734
