68
 energy: -119.712254519396 gnorm: 0.000556236963 xtb: 6.3.3 (4ae9cef)
C        -2.47265045157189   -0.07407298171490    0.43633267875686
O        -1.97494731780246   -1.12464356346058    1.13284057353267
C        -2.73562069772356   -1.72016912191975    2.15618312222541
C        -3.71108081928125    0.51507332246990    0.65925968042658
C        -4.11250947969889    1.60116257711087   -0.10016340417184
C        -3.28451904859782    2.12036500458531   -1.07706859742196
C        -2.05545574552141    1.52773779395692   -1.31254885411393
C        -1.64553466043024    0.42329234874124   -0.58555472943706
C        -0.30285872712925   -0.20015799821784   -0.84479154959705
C         0.66250685080970    0.09362450965666    0.33138218446023
C         1.39743035448116    1.39281184695537    0.14329767919238
C         1.09938277308681    2.47900999009900    0.94853984805719
C         1.77301616100221    3.67994826393936    0.80898715229602
C         2.76051607335328    3.79618972807681   -0.15035516038499
C         3.06435027039219    2.72857438519505   -0.97784535958604
C         2.38342131481352    1.52385913132056   -0.84863194895795
O         2.60780516657853    0.42783872576152   -1.62569513643552
C         3.67119888208393    0.45522954832603   -2.54936620048779
N         1.52134735245636   -1.07358490768058    0.35382857812796
C         2.61695129313355   -1.26928131635703    1.11786964248678
C         2.96496230813108   -0.10837267885041    1.99966632678661
C         2.22553493349816    0.13903445945455    3.14846596577225
C         2.54327170611669    1.22042117110656    3.95131079320386
C         3.58148403852283    2.06882643747018    3.60555828268542
C         4.32000159263080    1.79783496909788    2.46912973328072
I         5.88841672512783    3.09761447686630    1.91175693788119
C         4.03997506146208    0.70536522130424    1.67358173521746
O         3.26225721985241   -2.29679621468920    1.08063645094078
C         0.98856936680362   -2.15694460658931   -0.43830192935896
C         0.78592587636510   -3.40289578381946    0.45466402431396
O         1.42546741378945   -4.45346341602167   -0.02853321921207
O         0.22955770318786   -3.36028791005370    1.51878283910932
N        -0.26572262732559   -1.65095296725917   -0.95375941690787
C        -1.24628770899244   -2.55252233026199   -1.17922809132670
C        -2.53714441370172   -2.07161593593411   -1.74096750241445
C        -2.59345496724921   -1.13290033232450   -2.76312690351693
C        -3.82662883488806   -0.71370066751312   -3.22025476440042
I        -3.90915868981715    0.77222653495734   -4.71945259587971
C        -5.00269595737942   -1.22226484803753   -2.70039779609762
C        -4.93732932285541   -2.19543388953995   -1.71754935222750
C        -3.71157550090824   -2.62511890119208   -1.24353251659023
O        -1.05686361208106   -3.73895312216118   -0.96168564610431
H        -2.91900009648737   -1.01971667211445    2.97753242227391
H        -3.69048089016566   -2.09832427516072    1.77939371778158
H        -2.12249168485540   -2.54957762000196    2.50558419067566
H        -4.36548348055832    0.13297416953687    1.42658031614190
H        -5.07929316043517    2.04496333851829    0.08338930242504
H        -3.59273404400264    2.97395518058979   -1.65967270465694
H        -1.40707676486486    1.92389680375441   -2.08050915902265
H         0.12891211541513    0.22650370875135   -1.76058526878225
H         0.08391673921409    0.14035677290641    1.26250193667319
H         0.33284446064812    2.37470437535579    1.70236286449990
H         1.53286583000764    4.51343974271900    1.45008988811755
H         3.30622119033507    4.72061967538060   -0.26138123958095
H         3.83766475963483    2.84580621107670   -1.71986593026872
H         4.62746218235793    0.65487355838624   -2.05742523892715
H         3.50354268255063    1.19865013127366   -3.33495968665398
H         3.69849514136065   -0.53864686066404   -2.99308222293981
H         1.41214648213375   -0.52096757439137    3.41071288317312
H         1.97554726534657    1.41473341987731    4.84892790346753
H         3.81348158600800    2.92532937333055    4.21961761593707
H         4.63355741983924    0.48496143080984    0.80001175251571
H         1.67672072534211   -2.42894315007748   -1.25388578873846
H         1.31835910460258   -5.21792325184300    0.55831523931467
H        -1.68581701163859   -0.74610599701515   -3.19819873010647
H        -5.95775373545912   -0.87498476462828   -3.06316431431781
H        -5.85034009587855   -2.61483753940925   -1.32259123503546
H        -3.64258157517281   -3.38764213984266   -0.48296206808038
