84
 energy: -181.188383579630 gnorm: 0.000550583612 xtb: 6.3.3 (4ae9cef)
C        -0.00904310549615   -0.45651857881640    3.69141858140828
C        -0.20762925224585   -0.54367938712293    5.04037697180137
C        -1.06090756655421    0.35532183286089    5.71118360132733
C        -1.27963254401175    0.29076296446743    7.10285930204442
C        -2.11243861566302    1.18302582554653    7.71762704910380
C        -2.76413971988528    2.17851126562176    6.97115762352274
C        -2.57482744471544    2.26614690934273    5.62080972610255
C        -1.72080132306248    1.36053550239868    4.95671758809063
C        -1.50004678594093    1.42386686142105    3.56735366713225
C        -0.65914173544838    0.54054392547238    2.93663129160679
C        -0.51262740995846    0.64334442376519    1.43643093971939
C         0.81120505681281    0.09431924909361    0.85171480298059
C         1.35035928319306    0.98305752341201   -0.24343451565037
C         0.73112554416474    1.04978388678250   -1.46549687724476
C         1.27462738262890    1.80922582130881   -2.51937972343184
C         0.68213306373590    1.84507848415803   -3.79885622274921
C         1.25933719348765    2.56024951845317   -4.81000751143950
C         2.44725009976727    3.27450625850835   -4.58815021044898
C         3.04224587683849    3.26407053345596   -3.35771214281421
C         2.47628802129261    2.53160032201809   -2.29439208664821
C         3.07153998180169    2.47813645396479   -1.01698872448853
C         2.52550406889268    1.72445581947927   -0.01781551499792
N         0.43729448416215   -1.22152595919594    0.33132702582474
C         1.07312226967489   -1.88824917029005   -0.67225860825615
C         2.49768143361353   -1.47566820838466   -0.88645192472666
C         2.89158513511913   -1.08828425593607   -2.16264136842366
C         4.17775753048468   -0.61982688514467   -2.36944634554515
C         4.61108736205680   -0.14629349968531   -3.73199784438525
F         5.45141749761779   -1.01228528325534   -4.32150408506341
F         3.58872415766706    0.03149967647627   -4.57426412790364
F         5.26615211871642    1.02444853468301   -3.66720147815239
C         5.09696139195867   -0.56956387186043   -1.32869261443882
C         4.70777054745386   -1.01598660143181   -0.07668276480456
C         5.65535952275401   -0.96639287737218    1.09311052456327
F         5.16673985336516   -0.17957560086154    2.07282098842878
F         6.85960922900876   -0.48244701899045    0.78092166855980
F         5.84761849368984   -2.17218988095659    1.64539846192931
C         3.41515847452284   -1.47015994668792    0.15296873078038
O         0.52114712690785   -2.73328060370706   -1.33985312424200
C        -0.97602647401988   -1.46522674805736    0.53902460584987
C        -1.20437607757575   -2.41505806219992    1.75005094819178
O        -2.28364314785424   -2.12380371173780    2.47604137155343
O        -0.49643919463398   -3.34587375157582    1.96970995336839
N        -1.54179107525263   -0.16028359833576    0.76045349388151
C        -2.47299787982069    0.46692235376942   -0.01919715442098
C        -3.21059453230801   -0.39933858984435   -0.99749747736261
C        -3.92828209705645   -1.53205863049008   -0.63568011346112
C        -4.61500014882099   -2.24699142452187   -1.60911715073127
C        -5.39006538788624   -3.46720380453495   -1.17815267278921
F        -6.17741821103302   -3.20323373024111   -0.12339176424148
F        -4.57311230715758   -4.46270638907633   -0.80038031478922
F        -6.17766305264123   -3.95272476494962   -2.14003250004024
C        -4.58024233699363   -1.86534572563140   -2.94139940806164
C        -3.86420578351818   -0.72803899859525   -3.28778638377526
C        -3.83162310009888   -0.26178791495688   -4.72131895138634
F        -4.77217107384144    0.66612915537768   -4.96254811952060
F        -4.03718172940667   -1.25305722302220   -5.59298244624236
F        -2.65527298488260    0.29948929305390   -5.03724054875887
C        -3.19952951429563    0.01525879555942   -2.32513305153443
O        -2.69825819828604    1.65069830572823    0.07574216388348
H         0.64509936096006   -1.16732875097418    3.21036083735927
H         0.29126528505670   -1.31282015722782    5.61042941331566
H        -0.77565521855423   -0.47661822721880    7.67196694870216
H        -2.27577911400993    1.13044652425637    8.78370263607179
H        -3.41753898656471    2.87461722867367    7.47567668831925
H        -3.07349392714762    3.02931437395516    5.04109278758615
H        -2.00783727170554    2.18661470291507    2.99356772587217
H        -0.66687007129274    1.68507390863693    1.13517318916644
H         1.56128792244199    0.00535925774154    1.64281603955685
H        -0.17153857154546    0.48531281980830   -1.65884682677506
H        -0.22725286576372    1.28826997452157   -3.97324793167845
H         0.80550006406206    2.57569212997569   -5.78880705951448
H         2.88959947040596    3.83073079209138   -5.40048468848860
H         3.95950512481825    3.80638203330600   -3.18283152158790
H         3.98003964103435    3.03572261134367   -0.84446207603310
H         2.99663193397699    1.67904057321362    0.95326872320507
H         2.18522562107334   -1.13108518075285   -2.97751947763748
H         6.09377250651645   -0.19069129129393   -1.49540853205892
H         3.13348953273134   -1.81974048769151    1.13490700192132
H        -1.38085143739647   -1.98088153540141   -0.34509025913775
H        -2.63731273603106   -1.24078945176951    2.27469631587735
H        -3.98356164117114   -1.85836800722243    0.39253768962336
H        -5.10286185036378   -2.43759986353684   -3.69265724697185
H        -2.67053516237513    0.91701122393838   -2.59760458531556
