90
 energy: -155.642110745018 gnorm: 0.000247184446 xtb: 6.3.3 (4ae9cef)
C         2.33320896158750   -4.70193854130855    0.13650291027309
C         1.56366304579153   -5.41266875637746   -0.94102305733122
F         0.26907462159359   -5.61643098216942   -0.59580741968579
F         1.52152693612804   -4.75751844755446   -2.11343292001500
F         2.05189237114184   -6.62763693998720   -1.22114795232847
C         3.39204936219611   -5.37075656665675    0.73979108147119
C         4.11597314617064   -4.76634453179032    1.74833548126816
C         3.77965167877372   -3.48950597122140    2.16260911085857
C         2.72507575402428   -2.82706831075310    1.56793450635290
C         1.98922229436827   -3.41283769878331    0.54240554691082
C         0.83216350447205   -2.64637081400314   -0.04265834897897
C        -0.30759042541086   -2.46697030158537    0.98319431670314
C        -1.32060645843855   -3.57963949619575    0.92350487914137
C        -1.50439878077030   -4.49886411858671    1.95644848616518
C        -0.67481182678238   -4.44448190042425    3.20844671878104
F        -0.75695346090588   -3.27993709216890    3.87478433181140
F         0.64458604998781   -4.62223403516213    2.95468916019365
F        -0.99754223252534   -5.39411397614122    4.09513966095782
C        -2.44927407251759   -5.51119892749192    1.83701641098613
C        -3.21713442799807   -5.61833598905176    0.69428653096401
C        -3.03504163032122   -4.71805313251089   -0.34039335928969
C        -2.09379349572405   -3.71516037748438   -0.22430528928965
N        -0.88457372536401   -1.18857919129786    0.58103587096163
C        -2.15606638974262   -0.83577821146103    0.91856311510466
C        -2.71721252278826    0.32887821040642    0.16559266962141
C        -3.50012989099359    0.03317558082132   -0.94324601761477
C        -4.10261939137974    1.06416542970533   -1.63884945576922
C        -3.95448179457863    2.36865925309412   -1.21006256061283
C        -3.20098795043811    2.68341574227641   -0.08164945900278
C        -3.13602934311023    4.12923951279785    0.38284741101200
C        -4.54513408910639    4.55804716044344    0.81847950188046
C        -2.18969533760652    4.32545834115607    1.56961094969677
C        -2.66063266789382    5.01659067483957   -0.77662956305846
C        -2.57223938480578    1.64224577663940    0.59113831646578
O        -2.80901599781553   -1.48097320294636    1.70869842479496
C         0.03646946551572   -0.41340417820473   -0.21855481477046
C        -0.54891721251286   -0.12525691110339   -1.62085012109435
O        -0.95529390270342   -1.23450382901396   -2.22334463155093
O        -0.57697573032521    0.96135586189488   -2.13041109256464
N         1.19897498340418   -1.25909847335497   -0.32790177709681
C         2.44640835385169   -0.99351119473971   -0.84315681185686
C         3.00960757029209    0.37803928560797   -0.71351667406441
C         2.39429018466294    1.56703835744517   -1.07285366740789
C         3.03682942725560    2.79380984091447   -0.91088915750304
C         2.29382102049119    4.06467436912368   -1.28925971939890
C         1.07063828749499    4.18667960930548   -0.36969103376358
C         1.83362254781686    3.98367611190292   -2.75083841605416
C         3.15331381802887    5.32069936758551   -1.12345484585117
C         4.31885160137132    2.79972424629449   -0.37814205578522
C         4.94929988840444    1.61556094123167   -0.02996184721210
C         4.30767369150212    0.40804740690624   -0.20003308354102
O         3.13557678886326   -1.91372991909463   -1.23604391523977
H         3.64739582427952   -6.36684677455583    0.41373253933571
H         4.93802830404070   -5.29204348789009    2.20796622682464
H         4.33769535997826   -3.00925964056490    2.95188087933857
H         2.47258410207467   -1.82764612904740    1.89113494596606
H         0.44504288037152   -3.12182881947931   -0.94898391769400
H         0.11672689906936   -2.36518444132150    1.98716809606885
H        -2.58189836569269   -6.21372258449876    2.64485439083787
H        -3.95164612255632   -6.40408864348670    0.61338342324646
H        -3.62623213100033   -4.79893078084224   -1.23992222619305
H        -1.95245499670687   -3.01612676291825   -1.03421970866023
H        -3.64050239339219   -0.99525095237399   -1.24345793916985
H        -4.70351293362342    0.84836581572666   -2.51018407469690
H        -4.45021245136737    3.15145682762470   -1.76247029956082
H        -5.25621349657571    4.46742886061079    0.00174798259730
H        -4.89114077790428    3.93568623017668    1.64089493340566
H        -4.53343266295035    5.59414846539117    1.14960840515405
H        -1.17801739392214    4.01900577231810    1.31863992615788
H        -2.53010477470068    3.76560497489512    2.43746876753248
H        -2.16526188885670    5.37835739148181    1.84261288960986
H        -1.74243711548471    4.62139680170717   -1.20277760480437
H        -3.40515635399781    5.07227879145550   -1.56561349046133
H        -2.47469517883569    6.02745090845255   -0.42054251786049
H        -1.97789546791667    1.83036675406926    1.47076149201249
H         0.28327847588809    0.55238019543322    0.25041254168252
H        -1.27074187243261   -1.05078184118616   -3.12413189679623
H         1.41708258496850    1.55026876162386   -1.52091532575367
H         0.56088217369517    5.13008979465401   -0.55097453680689
H         0.37090669300687    3.37399988417113   -0.55050580438339
H         1.38014626781120    4.15772183399055    0.67397745136963
H         2.68610022347049    3.81784552817867   -3.40601147447476
H         1.35263311119787    4.91572195674939   -3.03974065661348
H         1.12090574008047    3.17777429453678   -2.90015709850271
H         3.44916571477460    5.46153761002061   -0.08639488358144
H         4.04332463733573    5.26941702285568   -1.74621556814838
H         2.58010092837548    6.19389443545104   -1.42793166583252
H         4.85128566325486    3.72549996073821   -0.23547643838267
H         5.95139330212301    1.64050340961925    0.37182214773495
H         4.79056527950153   -0.52276948554018    0.05561576489025
