66
 energy: -104.944646504554 gnorm: 0.000270469522 xtb: 6.3.3 (4ae9cef)
O        -2.85351195879335    0.24190804134691   -1.66053865811333
C        -2.11823466150196   -0.40205850719463   -0.94654374202775
C        -2.16300133106783   -1.89812643672178   -0.85174318927661
C        -2.95578731301881   -2.50295668264858    0.11534390930312
C        -3.02657696982383   -3.88494344096933    0.19249016524555
C        -2.30454322447437   -4.65900073744631   -0.70001517133251
C        -1.52975386726127   -4.05487981480329   -1.67583389929274
C        -1.45386613325631   -2.67164724849085   -1.77418986601545
C        -0.66159369960255   -2.01210292673687   -2.86102505799390
N        -1.17931809048930    0.18880353735086   -0.15736609800731
C        -0.12126651587015   -0.48447497210930    0.55839095684702
C        -0.55547459816097   -0.84695908688812    2.00846943803801
O        -0.92026607846244   -2.11166363536674    2.21597298078368
O        -0.55522565309070   -0.03935056368586    2.88915347794866
N         0.93935351192360    0.48837630534881    0.59269367363195
C         2.18598955907648    0.25354966138355    1.09342197801957
C         2.45106046025067   -1.19904553595975    1.36004829997337
C         2.89909882709822   -2.03714073207024    0.33801169491579
C         3.14409158519549   -1.50028713129262   -1.04048758070716
C         3.11212173644721   -3.37874396824833    0.62788434445411
C         2.89917304196336   -3.87554617706787    1.90192347403028
C         2.48694289530952   -3.02922565616457    2.91675129121621
C         2.26672115504677   -1.69005667032447    2.64616098303744
O         2.99351288133975    1.13529883933781    1.27366348689241
C         0.43029119298650    1.84249298542713    0.39815068665817
C         1.36398734689928    2.66293251924542   -0.45077768893661
C         1.84775640373446    2.15102388085948   -1.64819742660260
C         2.70189046853547    2.89963420287311   -2.43581267187298
C         3.07099915888676    4.17379653776059   -2.03911404804962
C         2.58179643395233    4.69370798635333   -0.85355473504410
C         1.73247330916469    3.94144802830480   -0.06155769372306
C        -0.93463616083717    1.62678514269758   -0.28451615193863
C        -2.04334727209757    2.46064435981382    0.30308113692895
C        -2.68943002899272    3.39962623910980   -0.48897531972078
C        -3.70534051934025    4.17795473375659    0.03598936634647
C        -4.08727470460375    4.02223137659654    1.35727729697179
C        -3.44675040080304    3.08667561150541    2.15146814620749
C        -2.42785982832000    2.30960980128992    1.62965105451750
H        -3.52282079424133   -1.88691618155645    0.79764917076939
H        -3.64654051069013   -4.35065184111472    0.94239769663569
H        -2.35534713563310   -5.73583149567936   -0.64595985220119
H        -0.98454962551969   -4.66475542563354   -2.38121347420360
H        -0.03878812430621   -1.20861862573617   -2.46871706050768
H        -1.34253407868345   -1.56514935428506   -3.58530319203771
H        -0.03060603443665   -2.73243883783453   -3.37616765599913
H         0.19598235611855   -1.40353389376587    0.03786958316031
H        -0.96928517181013   -2.65471873432048    1.41424823745617
H         3.49728496972698   -0.47253717822657   -0.99317919942511
H         3.88470827983928   -2.10489971969131   -1.55862681332755
H         2.22627950665641   -1.51979885331591   -1.63072364747234
H         3.45821914908178   -4.03828448856147   -0.15509070126868
H         3.07066495965857   -4.92202035494767    2.10559470685363
H         2.33917463302091   -3.40680898514507    3.91651646845247
H         1.95591654085480   -1.01812833269365    3.43175318347441
H         0.29772590157028    2.32417170633220    1.37496511669559
H         1.56173088563728    1.15608388500073   -1.96046242642549
H         3.08122326688801    2.48808939758651   -3.35985023029023
H         3.74107204907283    4.75780720434864   -2.65234099763481
H         2.86818131849192    5.68644539418450   -0.53992362518626
H         1.35938987950489    4.34387883782028    0.86831533917419
H        -0.86602782822093    1.85347702408539   -1.35723649921384
H        -2.39964805278514    3.51621408378161   -1.52261823672813
H        -4.20223606643561    4.90445846109940   -0.58954987508475
H        -4.88251244950277    4.62737758291143    1.76696516984294
H        -3.73878705081869    2.96005446783141    3.18341107265650
H        -1.93207173098069    1.58874239134785    2.26152889852145
