86
 energy: -145.109980203317 gnorm: 0.000459797861 xtb: 6.3.3 (4ae9cef)
C        -0.95781221710180    2.93306785259910    2.57479657124168
C        -0.69632921427408    3.87059484280480    3.53341098632934
C         0.10385091652311    4.99577644009711    3.24932960185628
C         0.39805599039002    5.97796952423692    4.21766275222510
C         1.16755710469160    7.06159424365419    3.89932457695142
C         1.67733528992966    7.21212756493090    2.59949679569063
C         1.40901851684505    6.27799133092466    1.63909321680252
C         0.61903852466987    5.14710047661984    1.93562050556151
C         0.33001760827866    4.16372506907241    0.96916861149231
C        -0.42608454292500    3.06214969929815    1.27718476624189
C        -0.71556692471727    2.01867487168227    0.22219082109878
C         0.53822955829815    1.54734173404155   -0.54695902773257
C         0.31103789809600    1.49372682018281   -2.03564649447174
C         0.99535204360375    2.32552727556855   -2.87989207176861
C         0.76986088207447    2.29830838129289   -4.27057846425419
C         1.46622651622498    3.14437859746149   -5.15860873331198
C         1.22346576095952    3.09699066181295   -6.50263714884988
C         0.27300852362550    2.20320794459094   -7.02068057613960
C        -0.41596699081590    1.36831104224899   -6.18620611859754
C        -0.18706731843046    1.39122940241401   -4.79513202049566
C        -0.87409617523837    0.54029337556488   -3.90431492402692
C        -0.63161220325716    0.58892287354962   -2.56227668712619
N         0.79481556509342    0.21363953664691   -0.00457208937715
C         1.99911929207404   -0.36366877093479   -0.28465094026270
C         2.34324176929966   -1.64831354535981    0.35260268552203
C         1.85208318074326   -2.45213533628052    1.35974506791521
C         2.74395412684848   -3.52995781716194    1.48187316522749
C         3.73421024174276   -3.32522186917813    0.54486000872310
C         4.92263398170119   -4.08832943218217    0.21442655045390
C         5.22379318786827   -5.27911489458487    0.87676804307590
C         6.36670718617662   -5.98400297236004    0.55302247778082
C         7.22260141296625   -5.51532849014162   -0.43105487564329
C         6.92940975628953   -4.33452832467541   -1.09442120034228
C         5.78901168784940   -3.62348527351457   -0.77719305271482
O         3.48339339479210   -2.19280524650817   -0.12509035694442
O         2.76566284294997    0.16522678507193   -1.06711986604195
C        -0.15718944297955   -0.11961294416898    1.02200805406801
C         0.42266953590882    0.14177834343810    2.43393249562583
O         1.47656960831100    0.94111442115929    2.39725753163716
O        -0.04049616588895   -0.31267581653811    3.44416073673274
N        -1.24912114008061    0.78931066228623    0.78926148462647
C        -2.57154995668066    0.47484402291076    0.58873913817171
C        -3.03682949703309   -0.81609762284677    1.11683429408718
C        -2.67884917357460   -1.59088126620326    2.19790960884962
C        -3.60668146370424   -2.64361177428346    2.25065387521315
C        -4.48152915951796   -2.44888855541531    1.20268925719801
C        -5.63715309745215   -3.20625449990277    0.76229298714842
C        -6.41469510538741   -2.73414093532618   -0.29711378841866
C        -7.52201192522781   -3.44316999738222   -0.71891425121504
C        -7.87079305611514   -4.62936268115701   -0.09335174814480
C        -7.10425894376386   -5.10472869907032    0.95885719930415
C        -5.99470380340219   -4.40220458074705    1.38657637789380
O        -4.13490757838627   -1.33934417800663    0.52932834135709
O        -3.32300540166222    1.25654056874297    0.04237880960517
H        -1.58635385921960    2.08608814386639    2.80733953095578
H        -1.10850359786342    3.76135326068576    4.52638127849025
H         0.00176022139611    5.85743730033766    5.21594047549728
H         1.38864910690988    7.81152212353333    4.64457198479330
H         2.28206552335788    8.07598461859882    2.36576889951438
H         1.79783774744454    6.39059807330493    0.63725176354993
H         0.71213147627766    4.30045990054820   -0.03231656382086
H        -1.47192905069266    2.41568354441773   -0.46708453524644
H         1.40649785701974    2.17956615072452   -0.33366683068300
H         1.73347270868238    3.01022393329971   -2.48780206961306
H         2.19810207819829    3.82956753625106   -4.75538505247489
H         1.76104162271937    3.74703199042636   -7.17758248210714
H         0.09270270750217    2.18096369733459   -8.08562073630426
H        -1.14748679618718    0.67720914555186   -6.58053598138488
H        -1.59959024613092   -0.15394518999247   -4.30355379605898
H        -1.16440342350788   -0.06984613761310   -1.89181155968932
H         0.98245336976084   -2.31343351058036    1.96634485410805
H         2.66052405271960   -4.34185690117888    2.17432972208888
H         4.56165289022686   -5.64923911947934    1.64384789173045
H         6.59330439233071   -6.90440832882234    1.07083440775839
H         8.11543576564855   -6.06948962949411   -0.67957726586434
H         7.59419418912695   -3.96681986595543   -1.86196544638905
H         5.55492465650717   -2.70221064237123   -1.28806318032054
H        -0.50275471003166   -1.15784350907237    0.95438276350426
H         1.80573458938383    1.13608225384149    3.29000580045050
H        -1.88413359052327   -1.40703021483563    2.89150376129152
H        -3.62802018755460   -3.43145294512466    2.97470662302703
H        -6.14071729550712   -1.80725499367252   -0.77720654700866
H        -8.11800756321919   -3.06915034238155   -1.53821205292069
H        -8.73785514308153   -5.18181586706167   -0.42346380328743
H        -7.37468313819412   -6.02882094973132    1.44831992957135
H        -5.40166576069455   -4.77875036633617    2.20527525701308
