78
 energy: -142.993092100427 gnorm: 0.000417861197 xtb: 6.3.3 (4ae9cef)
C         0.55873737335946   -3.42560079150832   -1.90366462019709
C        -0.24103586860726   -2.98229390447283   -3.09872323256684
F        -0.54165180439735   -3.99371552287401   -3.92583759917454
F         0.35914882119493   -2.05351363951589   -3.85050503039378
F        -1.43736508180260   -2.45182601575089   -2.73957584856482
C         0.94860185508769   -4.75804758203909   -1.83198426082274
C         1.67646894013068   -5.21663803350958   -0.75069138839780
C         2.01384801292112   -4.34235920186534    0.26752674067912
C         1.62560309424568   -3.01855483160702    0.19630452519477
C         0.90225796200800   -2.53192506882023   -0.88715830800921
C         0.53540158267598   -1.06713196460238   -0.91821222254054
C        -0.59545711818839   -0.71002049238865    0.08519780249328
C        -1.94406873847723   -0.56908456285784   -0.57618136767455
C        -2.29346031707301    0.39621465971359   -1.52165832264886
C        -1.42647212009084    1.49765694633397   -2.07808903528320
F        -2.01424230122651    2.69983940100615   -1.90871825705094
F        -1.27303657821082    1.35291548523756   -3.40853079671874
F        -0.19302081826306    1.63231183215994   -1.58637931296304
C        -3.57278182835432    0.40433704571846   -2.07539188163517
C        -4.51344359566142   -0.53608370913675   -1.71281236833314
C        -4.17214715394940   -1.50924259613903   -0.79141885390017
C        -2.90767824765543   -1.51784487494608   -0.24044986558965
N        -0.10604052713381    0.48026379483764    0.75428021094999
C        -0.79353769919208    1.45230059871089    1.42076652345550
C        -2.24531114138063    1.18972513299208    1.61907439646253
C        -2.65633424364598    0.09844653238177    2.37353786465322
C        -4.00090862352128   -0.16058615632681    2.58534846525957
C        -4.41999874284727   -1.34682779198298    3.39817203075560
C        -4.95761882486167    0.69031953412778    2.02202092349297
C        -6.41838360922932    0.41694324729826    2.20119290821313
C        -4.53658497839476    1.79822402392747    1.30002723601760
C        -3.19403309339865    2.06364482917416    1.10850004431439
O        -0.22707260285409    2.44261526417726    1.83283773847431
C         1.32674131490739    0.55797074925847    0.65566198413185
C         2.01452761490775    0.00739024154237    1.92274723114871
O         1.14044735801565   -0.27127475127568    2.89028670678267
O         3.19639102533871   -0.15536276834918    2.03410351641976
N         1.64998705063755   -0.22473553306671   -0.50747938024389
C         2.83731611561709   -0.29534327337513   -1.18126943655955
C         3.83872327428056    0.74460722433815   -0.83368132932142
C         5.11201929823179    0.37195619138245   -0.43003312396970
C         6.04634895925950    1.34686685646949   -0.13677765963529
C         5.74452408318133    2.69601445291544   -0.25952329042985
C         6.77318332744598    3.73385650202154    0.06788004487191
C         4.47177999058067    3.07362137117727   -0.70137666076193
C         4.11592305017643    4.51910484346597   -0.86570060385550
C         3.53370609899433    2.09274217815332   -0.98202324968238
O         3.01687901604287   -1.15751981171943   -2.01618421937028
H         0.68586427233975   -5.43363000263085   -2.63093889667571
H         1.98327040897396   -6.24988082909555   -0.70918522644593
H         2.58787217515705   -4.68782937532014    1.11377677336518
H         1.91401701488271   -2.33817481828166    0.98237890609916
H         0.25902741302619   -0.77958319349328   -1.93712965501502
H        -0.66885092250185   -1.52719685443650    0.81936938487889
H        -3.81883414598262    1.16219323545269   -2.80393480329168
H        -5.49747494814698   -0.51281132837954   -2.15299829185926
H        -4.88760219397983   -2.26407156417257   -0.50421549858673
H        -2.65074324284318   -2.28469952050105    0.47449471613540
H        -1.91076704953237   -0.54970108417629    2.81254547981703
H        -5.01127383147565   -1.03289895413765    4.25745558762894
H        -3.55284285711991   -1.89411303067480    3.75869284876338
H        -5.03512190699331   -2.02096097087071    2.80303209185143
H        -7.01563201528429    1.17420167784646    1.70061551691063
H        -6.68221093434991    0.41028155636692    3.25819270125005
H        -6.67781786570713   -0.55803436882266    1.78962150141482
H        -5.27315684768557    2.46856650398910    0.88178141831323
H        -2.87951742856580    2.93373038346477    0.55391925219401
H         1.64015339143470    1.60826222858244    0.56765253481465
H         1.60203381543531   -0.53343913960794    3.70415123506047
H         5.35547989915963   -0.67448836327835   -0.33514818630171
H         7.03294371033027    1.05425011654142    0.19281932792293
H         7.69782228939517    3.26893072431108    0.39980774304794
H         6.41335861158940    4.39370632193929    0.85665349779973
H         6.98829167337135    4.34964872734073   -0.80496528645170
H         4.78990358551079    5.00368558243799   -1.57123065687774
H         3.09758134003343    4.62520085269778   -1.22967174345993
H         4.19928842976076    5.04348524700250    0.08580142867514
H         2.55806159895038    2.38101617952520   -1.34877906844891
