92
 energy: -147.591743630633 gnorm: 0.000478039166 xtb: 6.3.3 (4ae9cef)
C         3.90643969416046   -2.81162217087448    1.85962452026591
C         4.09646819597907   -3.48234450382519    0.68612028515123
C         3.32964439442036   -3.14672595049806   -0.43833674652436
C         2.40301899712938   -2.14404643098209   -0.37750012609254
C         2.17240249278082   -1.43180202761344    0.82110559753964
C         2.93778062664018   -1.79107593152462    1.96515846101691
C         2.69489560684733   -1.15416317150740    3.19878209158613
C         1.69589930920032   -0.23166730830484    3.31818823558752
C         0.93209868384200    0.11959106404888    2.19997465654248
C         1.18543614416592   -0.41967121010390    0.96292505025406
C         0.30856220238827   -0.02601735121117   -0.19307077860750
C        -1.03086753383487   -0.80680598443746   -0.10320495832158
C        -0.97483583005425   -2.08194130841527   -0.90355318011357
C        -1.25887100655649   -2.04929411697168   -2.24495186779351
C        -1.14437924137629   -3.19359328288112   -3.04377473067370
C        -0.70913237218918   -4.36619097674609   -2.49829587936811
C        -0.38772625777510   -4.44271519877224   -1.12770078220632
C        -0.53967870528122   -3.29501161436480   -0.30073719048353
C        -0.21993437578559   -3.42792243147694    1.06887349775215
C         0.25556002308231   -4.60361742569478    1.57804936072879
C         0.42782642874578   -5.72291373039521    0.75288688112336
C         0.09986643372894   -5.64318788365225   -0.56957179202781
N        -2.02881344684298    0.15640151139986   -0.54762261060608
C        -3.35220691699138   -0.13319535053509   -0.43159486726794
C        -4.29622716529779    1.00544291574888   -0.65361839363191
C        -4.39559983229937    2.06139506534668    0.25973356292600
C        -3.52100120546263    2.13103750875314    1.44538054335966
C        -2.86765363253731    3.32338478235743    1.75605781197449
C        -1.99860626722667    3.38912439373342    2.82873550942760
C        -1.77627457480629    2.26921043898650    3.61275540425114
C        -2.43770118526533    1.08597934719455    3.32529015896846
C        -3.30453383948912    1.01457123303870    2.24953209227606
C        -5.32685640163083    3.06698394912295    0.01779299406705
C        -6.14416685945573    3.02581020891543   -1.09609089108928
C        -6.04616201878657    1.97325117389854   -1.99055232045448
C        -5.12932881571079    0.96310673844173   -1.76278115879877
O        -3.73187596943123   -1.25981834300925   -0.18504148782918
C        -1.43577671682328    1.44165383948461   -0.81430564363140
C        -1.34967444097660    1.66605047908002   -2.33505925412682
O        -2.24694587254187    2.55948097778096   -2.73538956318409
O        -0.59810426573566    1.09359667902010   -3.07485041048422
N        -0.12350823882467    1.36174609942776   -0.21704348081536
C         0.51866203535697    2.52049993139679    0.08879367592258
C         1.88564305435771    2.41969833360759    0.67637533070119
C         2.04588869958392    2.90805985177463    1.96817826214914
C         3.26591034155350    2.81574700866407    2.60921534328767
C         4.34194023366704    2.24300630594601    1.95136675765430
C         4.20232616760106    1.80517627500660    0.64896259112744
C         2.98166496078712    1.89832784835250   -0.01681770731022
C         2.88987917588045    1.51455228344911   -1.43305151877634
C         3.53124638564966    0.37061006557991   -1.90302188457136
C         3.45328194226800    0.02102311904852   -3.23803548054918
C         2.75733501031576    0.82131197849484   -4.12830486203335
C         2.14269094271554    1.97634706715454   -3.67656792879487
C         2.20324200748318    2.32017280768507   -2.33896318323405
O        -0.04810438346948    3.59033799297418   -0.05177595015151
H         4.48477543004354   -3.06331414756161    2.73718222072089
H         4.82907847926167   -4.27269156475789    0.61673868558064
H         3.47363653921405   -3.68878494714482   -1.36109985269339
H         1.82953252732283   -1.91717306978217   -1.26163097721813
H         3.29526154151727   -1.43199462835790    4.05291667884741
H         1.48337133460839    0.23140613337594    4.26993722563731
H         0.13018660343626    0.83469959396704    2.31397640374099
H         0.78990493798500   -0.24272520435388   -1.15397250326820
H        -1.26265878028549   -1.03582836885383    0.94376778802550
H        -1.56657902822846   -1.12311466700293   -2.70456897920412
H        -1.38882599282181   -3.13082452748923   -4.09369769230293
H        -0.59770389540457   -5.25194277747296   -3.10729881531337
H        -0.34389431959637   -2.59248382186458    1.73913586200561
H         0.50127509860286   -4.67405621866737    2.62751861884446
H         0.80916484982954   -6.64253977305861    1.17159921999528
H         0.21188375358514   -6.50172725409203   -1.21665478469560
H        -3.01555199102576    4.19290361160086    1.13275685039627
H        -1.48925543470758    4.31626480074072    3.04557516166962
H        -1.09349929588946    2.31819556973265    4.44905068657724
H        -2.27597593125211    0.21268142386369    3.94104186379058
H        -3.82966098149884    0.09437056462168    2.04208098394559
H        -5.41896578008039    3.87776025699527    0.72562572937773
H        -6.86390286938774    3.81339090271377   -1.26352999761481
H        -6.68653615983909    1.93574134014288   -2.85898657316787
H        -5.04878754488963    0.12960067250015   -2.44517900138385
H        -1.98918730879026    2.28304411053318   -0.38425024744097
H        -2.19853379808349    2.70445162317066   -3.69529217091024
H         1.19419135691413    3.34730896400435    2.46617882302850
H         3.37842427127661    3.18860451319665    3.61605318610518
H         5.29757115838771    2.15831377707817    2.44725794593809
H         5.05677430990641    1.40670179593655    0.12220689076376
H         4.07131401954149   -0.25915231650500   -1.21138174974673
H         3.94024916918840   -0.87929900556958   -3.58396635110586
H         2.69941056041874    0.54887372989561   -5.17144256096250
H         1.61542847516862    2.61391233200130   -4.37009767229458
H         1.73702087774753    3.23208100535024   -1.99622394164361
