78
 energy: -149.513661390821 gnorm: 0.000970331244 xtb: 6.3.3 (4ae9cef)
C         2.11854870583373    0.94300684401976   -1.22953178799877
C         3.07745962547293    1.84848622868543   -1.58043301531593
C         3.22359365124068    3.06212724244870   -0.87539361686933
C         4.23940116166565    3.99166578422175   -1.17732845345422
C         4.36343133306324    5.14717312237031   -0.45715549034593
C         3.47368855204424    5.43049795970300    0.59102899163639
C         2.47132417457020    4.55489623336703    0.90136886484962
C         2.32351331253353    3.35050980189687    0.18319850431188
C         1.33124754133836    2.40576745314058    0.51140443716865
C         1.24682688101503    1.21272989215276   -0.15496174417848
C         0.23555422163057    0.17990043491666    0.25557253786576
C        -0.82925981154123   -0.04508208239677   -0.84012843281304
C        -2.04046163174098    0.81983340604209   -0.62258592254022
C        -2.92839701549209    0.54393576421137    0.38424103152211
C        -4.05342210918083    1.36102985644736    0.60618533259166
C        -4.99117348423590    1.08578257514146    1.62353791179175
C        -6.07458798978964    1.89687165045418    1.81167417914561
C        -6.27008210133684    3.02073283577009    0.99320181586808
C        -5.37833903431374    3.31495729482655    0.00020745821442
C        -4.25041812845229    2.49780611741776   -0.22058913484135
C        -3.31144091384775    2.76865704314303   -1.23700558389242
C        -2.23599958699177    1.95111299729406   -1.43450373947724
N        -1.12882283565082   -1.46742247826682   -0.72740226824810
C        -2.13494105994446   -2.02510674060669   -1.45330688494319
C        -2.27243640906570   -3.50732804267175   -1.26611563804373
C        -2.76763735121953   -4.02859583724997   -0.07660704027369
C        -2.90644310062455   -5.39593336953832    0.08130782836151
C        -2.52939387665240   -6.25753329889423   -0.93454096604904
C        -2.04251109207809   -5.73228885453523   -2.12201151702811
C        -1.55726010947026   -6.63014038661867   -3.22399988140750
F        -1.82774860826597   -7.92466689778326   -3.02049322813498
F        -0.21440980781691   -6.54336165801174   -3.35963847136079
F        -2.06914091361167   -6.31319720076645   -4.42171275313295
C        -1.92960050585707   -4.36033060407003   -2.30290531071768
O        -2.87420112725898   -1.37758446557494   -2.15808848941931
C        -0.03271287996950   -2.18379816924801   -0.12492867999559
C         0.80025766682058   -2.95469850912287   -1.17928518357684
O         0.70409511775274   -4.26694006275447   -1.02939434192677
O         1.36022920457455   -2.40280674030758   -2.08663307498523
N         0.80330904859719   -1.14736180898481    0.45145286040561
C         2.07593435421497   -1.51061638938646    0.73703285128054
C         2.98781829497914   -0.48051246706519    1.30542962813071
C         2.60443903863173    0.34822036160102    2.35018536007773
C         3.49333114151336    1.30297284414148    2.82160144839338
C         3.06685753462694    2.20544892951097    3.94418764875374
F         3.28359298583597    1.65502743392011    5.15373068231250
F         1.75471849121093    2.49485321617710    3.90004983904757
F         3.71165081584538    3.37984975494670    3.94611364658442
C         4.76387894516058    1.42758361497621    2.27621129241022
C         5.15216438450260    0.57052829087905    1.26154416302880
C         4.27338399218830   -0.38385181850512    0.78302266908426
O         2.43579101747764   -2.66021099461619    0.53902449865996
H         2.03403932063367    0.00416613166054   -1.75828092887381
H         3.74954418156801    1.63984441609394   -2.39986733062808
H         4.92093459029780    3.77101095616773   -1.98625718449273
H         5.14759312685633    5.85240909045550   -0.68985255139368
H         3.58884302328325    6.34653241596889    1.15061595020582
H         1.78375501090784    4.76558321412363    1.70730180665931
H         0.65245109308580    2.62904156057167    1.32245194043254
H        -0.26785428127373    0.49694106109116    1.17997468955622
H        -0.40105437190944    0.16068256876537   -1.82998206746163
H        -2.78492048486477   -0.32258547401733    1.01590588641018
H        -4.83881437440757    0.21875650769108    2.25083567137936
H        -6.79010739327828    1.67919408348841    2.59105440706681
H        -7.13299116484371    3.64961394424163    1.15592590359230
H        -5.52515359805486    4.17792495576328   -0.63337675217189
H        -3.46165562456346    3.63456032334082   -1.86528376328716
H        -1.52544638368722    2.16144993594981   -2.22008747672074
H        -3.05385634224304   -3.35883499713983    0.72095905186442
H        -3.29833818445535   -5.79613861711376    1.00342273971310
H        -2.61292243671259   -7.32585550615402   -0.80963320763689
H        -1.56428262786251   -3.96090993682333   -3.23731842316651
H        -0.36727551159431   -2.89826619598839    0.64117224127266
H         1.25303820709277   -4.73427422177484   -1.68155735885069
H         1.62660645263041    0.25571328093827    2.79685900352083
H         5.43620649920446    2.18627860980960    2.64542813002356
H         6.14254140718415    0.65165204556119    0.84232304653643
H         4.56391915704267   -1.05708825950371   -0.00856825410590
