68
 energy: -115.306161085923 gnorm: 0.000374725457 xtb: 6.3.3 (4ae9cef)
C        -1.96526571462529   -1.27598600668927   -2.44315673935487
O        -1.14484019763523   -0.28024964534684   -2.87254473571301
C        -1.09054612698811    0.01904739613942   -4.24739692540654
C        -2.80773916453367   -1.99617840815587   -3.28534487129752
C        -3.59987559163404   -3.01600905152168   -2.79077402986821
C        -3.56361290804453   -3.33504927450857   -1.44698317563702
C        -2.73899845031291   -2.61319606607032   -0.60430663455620
C        -1.94301167049056   -1.57740740228500   -1.07336680616267
C        -1.03273372102140   -0.89393660771033   -0.07399889835319
C         0.38071891268071   -1.51189669776982   -0.13132321258978
C         0.98901399368263   -1.91568224468160    1.19335830064658
C         1.74726394448003   -3.07698688414058    1.22904577977301
C         2.41603684971454   -3.47062510773473    2.37392748658179
C         2.33139765728450   -2.68721176954520    3.50851613791423
C         1.57135367977644   -1.53193865280625    3.50166311142851
C         0.88942081506187   -1.13313185142767    2.35541203237722
O         0.08965515996405   -0.03229475256546    2.31085468394289
C         0.15780218272542    0.89360104905612    3.36887803231360
N         1.17973858232214   -0.48038928827879   -0.77977718968739
C         2.37601775981180   -0.77293283195157   -1.33539202394705
C         3.09341210938702    0.39639409198990   -1.90530824480177
C         4.15190861948205    1.03773081251338   -1.32907628832841
C         4.69363651954822    0.68438942635930    0.01518631490055
C         4.63061539116651    2.09847407337353   -2.14205356175850
C         3.94830756544493    2.22815873003294   -3.30522437041658
S         2.69085335914336    1.06444985103315   -3.44976621340589
O         2.84202736706295   -1.89531463453844   -1.33715767704692
C         0.50209316137879    0.78416265903060   -0.85653679193485
C         1.25456423696506    1.92318627236231   -0.12726775754068
O         1.51118490349644    2.92354744434774   -0.98046734922586
O         1.76711377847456    1.83367459284808    0.95719598631919
N        -0.79901590083355    0.52256725938641   -0.27584306461635
C        -1.36695114484223    1.57467449751758    0.35008361044065
C        -2.68455714225489    1.45410232944066    0.96802451233520
C        -3.23717208625410    2.31541853999544    1.89284929806568
C        -2.57784775064839    3.50584299556067    2.50262738635590
C        -4.55712550874308    1.94462723181556    2.24252409358401
C        -5.00143912542390    0.85028594379230    1.57469604957056
S        -3.81915442513224    0.21601787227720    0.51093235441249
O        -0.76450997231994    2.65136762846764    0.34228832934292
H        -2.05116683249497    0.39220770176867   -4.61593247539815
H        -0.78285954860784   -0.85099677974104   -4.83501185898229
H        -0.33767512764868    0.79997607874412   -4.34906117236570
H        -2.84696461687746   -1.76849597160872   -4.33835971482107
H        -4.24246478876420   -3.56184746052210   -3.46498213556577
H        -4.17204691795052   -4.13523690370041   -1.05603798964574
H        -2.70765211461371   -2.85452238886930    0.44807699440369
H        -1.45933884106207   -1.04229108645453    0.92180293964383
H         0.38815932585948   -2.39558872683151   -0.78199411691611
H         1.83417078343876   -3.66684586559194    0.32996210564537
H         3.00483168777895   -4.37456251586384    2.37351668177517
H         2.85468716835143   -2.97092872670261    4.40976021636610
H         1.51330692750094   -0.93887782127407    4.40019963140956
H        -0.28564032224700    0.48808361332282    4.28552457127677
H        -0.41569646386406    1.75610917298794    3.03774971486269
H         1.18796576926534    1.20538477739444    3.55296204062060
H         5.69921843508737    1.07890379161414    0.13787612930578
H         4.05222894550732    1.10288466989694    0.79258419262416
H         4.70960873349990   -0.39601732303800    0.14339797777319
H         5.45592808761215    2.72842877632303   -1.86079787167547
H         4.10362468401320    2.93175255142444   -4.09834809307524
H         0.38540508989768    1.11742722580149   -1.89838135811682
H         1.97336404463395    3.63877442927876   -0.51836321128123
H        -1.60938013769898    3.68735972461097    2.04897681187996
H        -2.46075808725880    3.35825671441816    3.57657838908526
H        -3.20502412681970    4.38380215218133    2.35337658448277
H        -5.14680888135842    2.48921216671907    2.95836632920043
H        -5.95876082250388    0.37234650409295    1.64156374883543
