74
 energy: -119.413760453140 gnorm: 0.000268897812 xtb: 6.3.3 (4ae9cef)
C        -2.18278595319561   -1.08276772388571   -2.16998994592358
O        -1.95724153149979   -2.25062981066576   -1.49932813307890
C        -2.42002536298412   -3.45469746968033   -2.06236393782040
C        -2.82295889158634   -0.98513676790435   -3.39645633304516
C        -3.00830105416382    0.25649797140460   -3.98346723772940
C        -2.56830326864837    1.40194661478579   -3.35227868156908
C        -1.93073296622574    1.30888773659488   -2.12538937209539
C        -1.72460048533922    0.07993181958860   -1.52916388294236
C        -1.03199349910971   -0.09900888913707   -0.19891240880315
C         0.40304154555296   -0.67231615255722   -0.37299785391837
C         0.63679146749235   -1.90413285711057    0.46456762340344
C         0.82942403956605   -3.13066705110260   -0.14456509864292
C         1.03018372969539   -4.27702124900417    0.60450187675457
C         1.05291800810200   -4.19283300852391    1.98289370882204
C         0.86760849204190   -2.97443563647712    2.61392173863513
C         0.65153298867080   -1.82480046805766    1.86566997580066
O         0.44175418752071   -0.58697496252882    2.40340781460210
C         0.46314380639020   -0.43025171021224    3.80247391045816
N         1.27574802089770    0.43781304834556    0.01100649815372
C         2.61163163140137    0.23597413797991    0.21399061976044
C         3.34510422876801    1.41948228605963    0.83446534237929
C         4.83346278317158    1.24306803757035    0.72889995114614
C         5.57541951133387    2.02210222214690   -0.14760732725608
C         6.94375746907685    1.84648301363360   -0.25583674776522
C         7.58168845985717    0.88278063954515    0.50548634038065
C         6.84579901894887    0.09563889133348    1.37489107587924
C         5.47927556669111    0.27582095019663    1.48720360466648
O         3.14521870746542   -0.79901956820418   -0.11366502454166
C         0.51381241426043    1.59769258916958    0.40027142279787
C         0.57993902565724    2.71924070343808   -0.67312890205523
O         1.23961989503047    2.39517141698997   -1.78639173145784
O         0.08419790161601    3.79326706260493   -0.50970276477345
N        -0.84261195664178    1.12028600856588    0.55624997237659
C        -1.52909835223636    1.48384835613351    1.67786192922941
C        -2.89974565858979    0.85686103137631    1.85366948332432
C        -3.78612015618982    1.08996729740130    0.66106082323674
C        -4.44767661716166    0.04313644725646    0.03487048489070
C        -5.26137981688533    0.28131821345078   -1.05892816154042
C        -5.42008237283620    1.56862417257695   -1.53918586204958
C        -4.76670371022607    2.61916417318227   -0.91704709314969
C        -3.95597354615190    2.38187363594125    0.17709778382663
O        -1.07645249712645    2.29164780384536    2.46016693055673
H        -3.50808557045598   -3.45115166493520   -2.18115858366905
H        -2.13424380960231   -4.23313358579589   -1.35640076796661
H        -1.94936553837877   -3.65436549945950   -3.02998014071481
H        -3.18483051451669   -1.86659489001334   -3.90139434422506
H        -3.50748381934402    0.31853501695021   -4.93861080101528
H        -2.72007475379267    2.36925043535436   -3.80364790039898
H        -1.61565563032125    2.20829495073429   -1.62278816076518
H        -1.61797837695174   -0.81372362960830    0.38428144456499
H         0.58518302610618   -0.93494667463082   -1.42225181355125
H         0.82757804635231   -3.18396832324492   -1.22223800659498
H         1.17998159337625   -5.22600779093864    0.11333795505019
H         1.21983314926983   -5.07643044678874    2.58071910453737
H         0.89632061600883   -2.92922718871198    3.69112243358947
H         1.44497119763449   -0.67622683688180    4.21881197429773
H        -0.30246986660068   -1.04353114047779    4.28774264273758
H         0.24212651987049    0.62218149734947    3.97787390506039
H         3.04373536615233    1.46513980145120    1.88573217190795
H         3.04144494895754    2.34975926490652    0.35127668816826
H         5.08130716497569    2.77439564034804   -0.74685293345174
H         7.51179245721665    2.46222712277480   -0.93780332044427
H         8.64944617248304    0.74432343263047    0.42003127311402
H         7.33864954056294   -0.66117508177084    1.96742343007674
H         4.90558175604669   -0.34316794933792    2.16098929168936
H         0.82132539417146    2.03595977443844    1.36194901811560
H         1.56509752747984    1.47835662559219   -1.75330436423734
H        -2.79087199583701   -0.21200790241125    2.05185313453045
H        -3.33903038500235    1.32170144124094    2.74059602594888
H        -4.32905071189978   -0.96653803988481    0.40391638270554
H        -5.77191699410701   -0.54142009078780   -1.53808426740549
H        -6.05205402917433    1.75298637740229   -2.39502462546001
H        -4.88741296977099    3.62648369221941   -1.28648969726434
H        -3.44213071331475    3.20018470623817    0.66014944017548
