72
 energy: -126.248180468895 gnorm: 0.000314822174 xtb: 6.3.3 (4ae9cef)
C        -1.49173707298392    1.09776893950456    2.03269386391713
C        -1.88512686536886    1.80992464438622    3.12839187448370
C        -1.52785570783564    3.16631905966147    3.27919499209840
C        -1.91119291814522    3.92505639931412    4.40426933459808
C        -1.54023159262965    5.23526594131994    4.52250423358999
C        -0.76967234194755    5.84715061661995    3.52117623187680
C        -0.38416550276607    5.13941083393272    2.41747345314482
C        -0.75144440230178    3.78610941291104    2.26564864158726
C        -0.37265123403033    3.03073855361001    1.13802588738162
C        -0.73492774027474    1.71643182128647    1.01834890789542
C        -0.27520509104070    0.90610516173823   -0.16356489242193
C         0.87815689655313   -0.03787235502011    0.22047584513079
C         2.20116822103203    0.47664638361351   -0.28024648367255
C         2.98637128964347    1.24230371532958    0.53983354320837
C         4.20296850204163    1.78441058387874    0.08128638573573
C         5.02575073050495    2.57965728469812    0.90633128732577
C         6.20358076782945    3.08704036605559    0.43460013333243
C         6.61327590731683    2.82333272161254   -0.88222726043230
C         5.83728370383687    2.05767887668296   -1.70652861822703
C         4.61570124183389    1.52032067819535   -1.25081234700892
C         3.78696253886929    0.72949207617096   -2.07338330467543
C         2.60683355219563    0.22771091149056   -1.60481038143730
N         0.51125784694194   -1.31871270960037   -0.36951533189390
C         1.26658508370182   -2.40947320208497   -0.06777220476336
C         0.76518076844479   -3.72420378114853   -0.58247833240840
C         0.57346372818601   -3.99213817730612   -1.93114354599121
F         0.76468871176859   -3.00343213266564   -2.84274085720658
C         0.17133730504186   -5.23238183269757   -2.38843212968497
C        -0.04571476703024   -6.24370704985213   -1.46878868755764
C         0.15185053287053   -6.00858996844375   -0.11800269516456
C         0.56748800941171   -4.76475043073316    0.31984411088989
O         2.28765050557997   -2.32462668113181    0.57590473773975
C        -0.83512427389088   -1.33195228870570   -0.88850573079408
C        -1.68567848087982   -2.37387622603434   -0.11090823549792
O        -2.29059516728925   -3.31466513155008   -0.84841678271872
O        -1.77153394189652   -2.35435040226011    1.07847290456130
N        -1.31082905522836    0.01101490898905   -0.66220262573897
C        -2.54142488896197    0.48714462225965   -0.98286502770424
C        -3.51386789942101   -0.57337863916053   -1.41799605111530
C        -3.54480922668993   -1.04498799523022   -2.72530122081079
C        -4.47676467642544   -1.99604178184554   -3.10623326599748
C        -5.39147711080081   -2.48265443292517   -2.18578613773966
C        -5.38609732495367   -2.01548921452782   -0.88388198708459
C        -4.45304956400573   -1.06227659709999   -0.51686029799552
F        -4.44163686233805   -0.61542827916931    0.74724279026699
O        -2.82891898746060    1.65856359236009   -0.92062134763252
H        -1.76684132107871    0.05767616899821    1.93401091494266
H        -2.47706934549356    1.33801846537995    3.89885068257776
H        -2.50459599352721    3.44961765936157    5.17228640407910
H        -1.83710772292911    5.81065853988081    5.38734432251235
H        -0.48530799238792    6.88357148228394    3.63154162464568
H         0.20761862575669    5.60584050309783    1.64263866145050
H         0.21165895985797    3.50771622761714    0.36349020850176
H         0.03455496271515    1.58013023641548   -0.97454291779967
H         0.92674523828581   -0.15565318231384    1.31115803302237
H         2.67709077761676    1.44005312559841    1.55638276457374
H         4.70565653051025    2.77803770138951    1.91914743882943
H         6.82982638495823    3.69459032240251    1.07146012673730
H         7.54826447082536    3.23163338996556   -1.23723975650638
H         6.14865892768620    1.85196753135335   -2.72089864287664
H         4.10188340912692    0.52701574846647   -3.08711427933472
H         1.98199010716668   -0.37769052250618   -2.24533777855928
H         0.04186213314547   -5.39180720357048   -3.44752869536729
H        -0.36320456498898   -7.21601247388233   -1.81179198278267
H        -0.01227438179089   -6.79936201372441    0.59672632759717
H         0.73622977895537   -4.57414286178191    1.36796613974035
H        -0.84144265503091   -1.56175383685559   -1.97113204927464
H        -2.17716884485070   -3.20130757734073   -1.80311787362000
H        -2.84304404309441   -0.64967944661221   -3.44588582069572
H        -4.49326043751536   -2.35187224882753   -4.12506155617903
H        -6.11631378021226   -3.22376121026916   -2.48437915412728
H        -6.09022737071159   -2.37409132096521   -0.15066551748733
