72
 energy: -124.964236384300 gnorm: 0.000629486948 xtb: 6.3.3 (4ae9cef)
C         2.30577489808618   -0.11001751524085    1.41923405201994
C         3.41336612928470   -0.17474313322411    2.21404991644398
C         4.37669798061668   -1.18791561155836    2.03233400316373
C         5.53292863624241   -1.28091165902015    2.83378933699110
C         6.44849338932551   -2.27348416138661    2.62304863792331
C         6.24994524711607   -3.21675899278353    1.60223903759531
C         5.13825089640433   -3.15419197840651    0.81004509248927
C         4.17402382349276   -2.14273038010668    1.00229308758686
C         3.01949795069570   -2.04887784080994    0.20047554788943
C         2.09689471770258   -1.05622649665922    0.39721469304461
C         0.85310370452369   -0.99374834879074   -0.45566158395921
C        -0.38492868766337   -1.48074916132616    0.32131577167003
C        -1.48547792514724   -2.11911669970063   -0.49152154707025
C        -1.55161483276982   -2.07899273411013   -1.85872155766433
C        -2.65747829020634   -2.61972694347678   -2.54914985929094
C        -2.74596020408602   -2.57720466011987   -3.95625534306942
C        -3.83017084857452   -3.10190088338641   -4.60265353382294
C        -4.87359219385445   -3.69189987401949   -3.87236664688466
C        -4.81771679716610   -3.74463062118967   -2.50732419869735
C        -3.71448934891084   -3.21065207798508   -1.81113368029235
C        -3.62260511829941   -3.23820817005629   -0.40332240342645
C        -2.54199475982061   -2.70710740782457    0.23661307490013
N        -0.90097569606766   -0.23325300411716    0.88518205552866
C        -1.02606272883102   -0.05702568471367    2.23131440345969
C        -1.29230885654944    1.34373431653061    2.67386680573231
C        -2.33797291516193    2.10031032907358    2.15262979720415
C        -2.54340399673771    3.39512681377149    2.59432338973065
C        -1.69937559551588    3.92596727420351    3.55619645366412
Br       -1.95995909466317    5.72000039239841    4.13924511926155
C        -0.66939704291672    3.17729465503152    4.10282428148668
C        -0.47590825315235    1.88080145396318    3.66471196470406
O        -0.91593615830669   -0.98081214859434    3.00749984111202
C        -0.72365828016164    0.77322471416463   -0.12219772553799
C        -1.93620189093877    0.78127279443404   -1.08141667387910
O        -1.58146255694032    0.92320043784513   -2.35219453620490
O        -3.07216485390457    0.72374797493599   -0.70308189421256
N         0.50431019835295    0.38796884798531   -0.77884379359384
C         1.30493746327949    1.16496369555088   -1.55094291055745
C         0.91476607676629    2.61205269716496   -1.58988839911496
C         0.46966814007021    3.18734316494885   -2.77228747143971
C         0.12484032531426    4.52639502567374   -2.81090560956148
C         0.24296950784178    5.28866515276959   -1.66068416222078
Br       -0.24693176719309    7.12710828614358   -1.70221629340045
C         0.71570163871624    4.73964496116131   -0.47993165214877
C         1.05247019493677    3.39893829205173   -0.45026583101154
O         2.26329242695681    0.71953414886459   -2.14171945616630
H         1.58145746706264    0.67773111410772    1.57245756952644
H         3.56855974974365    0.55549738601149    2.99565336786002
H         5.68205995715399   -0.55198093488513    3.61764374067137
H         7.33274489001052   -2.33951075660711    3.23974247473082
H         6.98552929332075   -3.99266359364967    1.44901476542880
H         4.98133727333206   -3.87723409466768    0.02259762033208
H         2.87313931954020   -2.77737207913665   -0.58436824622150
H         1.02424317687623   -1.56582836620035   -1.37079142520881
H        -0.10759858955553   -2.13428998022358    1.15453959514317
H        -0.76645876995976   -1.63067197567668   -2.45051084890863
H        -1.93777669053525   -2.12482488490319   -4.51446412560445
H        -3.89129226239335   -3.06750481931893   -5.68051716289230
H        -5.72112774176662   -4.10385581866974   -4.39985144098710
H        -5.61899586831436   -4.19664100866594   -1.94073242033949
H        -4.42762009060103   -3.68494009711850    0.16150977243853
H        -2.47912954407323   -2.71974490754285    1.31445847736667
H        -2.99882127730476    1.67278838470366    1.41393548730664
H        -3.35288821177746    3.98611780234405    2.19495519956021
H        -0.03319362096580    3.60212313647317    4.86402322810034
H         0.31227627281060    1.27477377211852    4.08580093143274
H        -0.66917850803901    1.78010156863361    0.31372542512320
H        -2.36270253600836    0.92058679531736   -2.93059425681325
H         0.39225030750807    2.58096917918127   -3.66087855149766
H        -0.22781561127357    4.97692196293902   -3.72572373251404
H         0.82101767868568    5.35286803907125    0.40184239174495
H         1.44579828429280    2.97017893628295    0.46076956381340
