28
 energy: -46.185961077274 gnorm: 0.000283297908 xtb: 6.3.3 (4ae9cef)
F        -5.26031466108636    0.60095395654456   -0.52186174046235
C        -4.12464740051265    0.11558700713481    0.02649695814862
C        -4.19829856438720   -0.72311407417383    1.11358276900687
C        -3.02848604241547   -1.25220851579266    1.65902882678206
C        -1.78434225044896   -0.93422979071079    1.15525095626975
C        -1.71609500018386   -0.05245569671972    0.08163484925310
C        -2.89196096010898    0.46032146198344   -0.52172522937993
C        -2.48425892135312    1.24418432084704   -1.63883792255489
C        -1.13088686821311    1.18365509731308   -1.68360384001522
N        -0.64595474486434    0.42518882626633   -0.64121116886086
C         0.71482712711216    0.24811231246554   -0.40810051200898
N         1.48649671462091    0.26625631854850   -1.48858722893461
C         2.78862869291422    0.11752152942417   -1.34327964166311
C         3.41931517249670   -0.06223997378504   -0.11764329283505
C         4.90223816297285   -0.22057160267582   -0.01109428278101
C         2.60427965433221   -0.04816666480730    1.01165240381793
C         1.23937203695722    0.11514423647227    0.87866993729288
H        -5.16174336074735   -0.97914914809750    1.52453500492816
H        -3.10463150965045   -1.93216008480295    2.49349634278247
H        -0.89950093031648   -1.38633938083891    1.57360027469211
H        -3.13203023589501    1.77369162929590   -2.30760852165524
H        -0.43885462623642    1.63055024502284   -2.36922216411739
H         3.35911193307695    0.14221627542407   -2.26316872430185
H         5.36279341255045    0.73766995774352    0.23167667656307
H         5.15884767199232   -0.92464133131739    0.77765826444318
H         5.32198958020343   -0.57032115395014   -0.95089324182456
H         3.04238416821028   -0.15192596568849    1.99455154448523
H         0.60172374898000    0.17646820887447    1.74500270292951
