72
 energy: -117.807669589858 gnorm: 0.000381765402 xtb: 6.3.3 (4ae9cef)
C         2.18228894359055   -4.01945500836802   -1.01027359658820
C         3.40227391710824   -4.59120529506297   -0.69657654066284
C         4.22501795915298   -3.99781797736302    0.24542345742273
C         3.82044159373657   -2.83323019618133    0.87520353690274
C         2.59770839140822   -2.26262494469400    0.56843343596507
C         1.77289137315405   -2.85216548896146   -0.38132488199068
C         0.43678226995870   -2.24193963853169   -0.72600431187600
C        -0.58400008394994   -2.34727966784494    0.41659375682855
C        -1.92279294669710   -2.89263898031369   -0.01859804653101
C        -2.50964516237442   -3.94366115439978    0.67071705689820
C        -3.75468684867165   -4.41737275801286    0.29507145830472
C        -4.42606077520882   -3.84138144479293   -0.76944268466734
C        -3.84742323905136   -2.78965169746356   -1.45989445568293
C        -2.60218254617415   -2.31724284370196   -1.08691115373272
N        -0.73769424052278   -0.97361602318792    0.88574302380879
C        -1.30942659459831   -0.72258557486418    2.09429569695285
C        -1.48263600287737    0.72953208573416    2.40296652208127
C        -2.42590784596778    1.50105250812094    1.67712149833028
C        -3.27248216359475    0.93841421691558    0.69780209731859
C        -4.14593403487519    1.72398812887451   -0.00161698031030
C        -4.22015602719361    3.10281868647824    0.24825495501772
C        -3.43453032593833    3.67036008879502    1.21127663294069
C        -2.52538826795436    2.88941693480510    1.95478457343806
C        -1.71806654543374    3.44794151345426    2.96822462049541
C        -0.85919082437969    2.66683303720124    3.69018507757718
C        -0.74169864260082    1.29833888997651    3.40830760752037
O        -1.64086708487697   -1.61700765600371    2.84165979067299
C        -0.21786076415874   -0.00464019408279   -0.04396786691693
C         0.65930724589996    1.04028139274459    0.67662944808948
O         0.23551894035030    2.27783720310847    0.43603949851882
O         1.60745106695576    0.77919342257349    1.36125475800435
N         0.54186825939949   -0.80708625089238   -0.97379059992828
C         1.24850403422425   -0.35428501057868   -2.04301089192525
C         1.32651851502045    1.13722404471168   -2.13373148123089
C         0.31495610151839    1.85625664664026   -2.71644265768981
C         0.38951425961585    3.25411337107252   -2.79268194522814
C         1.46962690572496    3.91534161139132   -2.27971564460468
C         2.53485251309011    3.20793408920955   -1.68395736240522
C         2.47417437378531    1.79054745471996   -1.61931131642327
C         3.54174168749455    1.08183586737468   -1.02817666907276
C         4.61566727626618    1.75120629860318   -0.51257493630628
C         4.67434441127589    3.15271664710156   -0.56637632548614
C         3.66007294707108    3.86488066117328   -1.14224196919776
O         1.76286538388583   -1.11196343855740   -2.83644533672304
H         1.54606442754012   -4.47690419388033   -1.75367634845377
H         3.71377039584300   -5.49782110615064   -1.19388146742711
H         5.18047981549825   -4.44052002465623    0.48572853384165
H         4.45803745130207   -2.36384194371890    1.60981284384797
H         2.29284499505004   -1.35287891773201    1.06300947683453
H         0.05770291629294   -2.72373928039871   -1.63590989921562
H        -0.19735090914146   -2.95074021174263    1.24512094341169
H        -1.99309659113058   -4.38142551388531    1.51098091841711
H        -4.20367171272804   -5.23494967931909    0.83883619157955
H        -5.39906324944034   -4.20842027206510   -1.06030170993357
H        -4.36732481460919   -2.33510400896706   -2.29054805745412
H        -2.15627053620971   -1.49770767516007   -1.63322499727335
H        -3.24004960390497   -0.12801533767989    0.52370171275722
H        -4.79053695659384    1.28406823174738   -0.74832076663341
H        -4.91318300494456    3.70774411855608   -0.31763410298870
H        -3.50233186312297    4.72765146161827    1.42415169671606
H        -1.80075183585098    4.50638673908967    3.17067414239247
H        -0.25715159894035    3.09590558875358    4.47726023838548
H        -0.04609380308077    0.69042541938335    3.96685242876536
H        -1.02151738941524    0.55392893418738   -0.56012421449333
H         0.79826587492455    2.93236660073490    0.88128098768027
H        -0.54600519713063    1.34607025477668   -3.12428820976040
H        -0.41831011195835    3.80076201376079   -3.25540269692228
H         1.52687550744443    4.99349287596683   -2.32756381257907
H         3.50062630684138    0.00343040851202   -0.99396693462393
H         5.42773228197272    1.20319434427882   -0.05954050193277
H         5.53108313424971    3.66367399425125   -0.15204992652406
H         3.70346966866814    4.94375662282616   -1.19389631630901
