62
 energy: -108.957602436392 gnorm: 0.000435045843 xtb: 6.3.3 (4ae9cef)
C        -1.13583055198138   -3.35970236672063   -0.33269772436707
O        -1.84508746004186   -2.94140691888352   -1.42030346603211
C        -2.66794356130197   -3.86815507380010   -2.08456481296347
C        -1.20490843168904   -4.63644077352601    0.21078497026311
C        -0.46399155729022   -4.95482414931692    1.33688445878862
C         0.34263147017952   -4.00849129003538    1.93864125788705
C         0.41802671738887   -2.73493139735748    1.40058915739503
C        -0.30052939673533   -2.40567706457971    0.26491271632187
C        -0.23730444014443   -1.02200911488034   -0.32630811424462
C        -1.12981123153160   -0.03336991594530    0.44492267084195
C        -2.32089555585791    0.40335678105238   -0.36526091939680
C        -3.58219879577617   -0.06508960168900   -0.04476093239318
C        -4.68903769465863    0.29267490938132   -0.79465973221032
C        -4.53158848697520    1.13918937596145   -1.87421617251486
C        -3.27755304412036    1.61972279420816   -2.21250773486895
C        -2.16300736836031    1.25179348745444   -1.47049964792960
O        -0.88663513985006    1.66266548637664   -1.74816132814492
C        -0.68343447658459    2.52876931521590   -2.83674622292890
N        -0.24461747663418    1.07305747565250    0.77669756139481
C        -0.70752439588027    2.12452640424000    1.49543899163379
C         0.29672791598449    3.19777801143837    1.74744400394542
C         0.80814662208184    4.01927336259864    0.79059257524383
S         1.89551232927292    5.17606900838693    1.44300484907820
C         1.65747647174868    4.55247850537019    3.02674723050430
C         0.78089129799360    3.51828978786058    3.04308648941983
O        -1.84804398621825    2.18350356058613    1.90165357472893
C         1.11712111255478    0.86099445350699    0.35939928279843
C         2.06260659824797    0.88480770975418    1.57823227656083
O         2.99007733647779    1.83371018999135    1.46700231154562
O         1.97365569118947    0.14729364471258    2.51817555740022
N         1.09493408429427   -0.44326907995808   -0.25116109274826
C         2.15682703450209   -1.07872771919188   -0.80449812930207
C         3.46269660785121   -0.38523002122626   -0.59191691474514
C         3.92003222273259    0.67592628749093   -1.30879968422950
S         5.48082131658054    1.17865376252305   -0.79783718847528
C         5.52395824520593   -0.05991221295648    0.39271805151802
C         4.39844073277322   -0.81611975972473    0.38585947604158
O         2.05768734977440   -2.13321100354405   -1.39146051042354
H        -2.09135592282551   -4.71367897583566   -2.47251615510867
H        -3.46575471276749   -4.23725120362402   -1.43192741533937
H        -3.11088057636756   -3.32150950261757   -2.91587206756849
H        -1.83114393080848   -5.39253741020285   -0.23560949054492
H        -0.52661401219220   -5.95321573223863    1.74396408560727
H         0.91161180158711   -4.25713164454498    2.82112587607672
H         1.04179452355001   -1.98720090178151    1.86789470996333
H        -0.54228901358638   -1.07951393601796   -1.37739011601125
H        -1.48769437347333   -0.48666875573740    1.37826952908439
H        -3.69437662991848   -0.71674824472107    0.80833458283618
H        -5.66637582743311   -0.08140063410285   -0.53210079615519
H        -5.38608423735265    1.43504265583589   -2.46451319929573
H        -3.18246707945124    2.28015397949010   -3.05983028796392
H        -1.21053944007328    3.47893653785461   -2.70054498732800
H        -0.99554502679216    2.07194411850944   -3.78112059918549
H         0.38991852248334    2.71485822249124   -2.87235887982238
H         0.59519117894148    4.02468447704393   -0.25957685578109
H         2.17630231218439    4.99748285065968    3.85218433782896
H         0.48274313174490    2.98665206392847    3.92831026125769
H         1.45217410677529    1.63494255217111   -0.34947049291162
H         3.57764941505734    1.84350318099262    2.24089136466628
H         3.43924756110076    1.18715108538761   -2.11869599243904
H         6.38639425514601   -0.15854338459963    1.02133719427690
H         4.21976786925433   -1.64791624876369    1.04278425844792
