72
 energy: -133.993309563847 gnorm: 0.000829702321 xtb: 6.3.3 (4ae9cef)
C        -1.03800985501494   -1.32924924431546   -2.08943281876445
O        -0.72483486498012   -0.00683603298334   -2.24364196806058
C        -0.70331234367276    0.54435369134566   -3.53954197891869
C        -1.32515053798214   -2.18698502818319   -3.14312899778815
C        -1.62436560994680   -3.51658840352432   -2.90019526044265
C        -1.64480856022319   -4.00328950885746   -1.60778161071871
C        -1.37083496119696   -3.14855961473344   -0.55476221180588
C        -1.06382953196950   -1.81715587986252   -0.77457078944832
C        -0.76579048969747   -0.91748954478637    0.39849641073299
C         0.70751465012834   -0.42837640143637    0.44173386724447
C         1.32874999020780   -0.64148557116239    1.80457589952420
C         1.63110165379871    0.39672989564841    2.66941686547205
C         2.20914611391313    0.14442006340936    3.90259920564600
C         2.49782726003730   -1.15566896608038    4.26778341819136
C         2.22272448382808   -2.20618928767013    3.40846150249860
C         1.64111325064209   -1.95952046343863    2.17269258860802
O         1.33757898509828   -2.91391548380375    1.24607827840520
C         1.69390379399045   -4.25039042354684    1.51596304888470
N         0.63666019823202    0.96505118041330    0.04279621437632
C         1.36339544958793    1.53766030957438   -0.96078131244851
C         2.66204030621140    0.88410598773997   -1.30155708600112
C         3.06019283125988    0.89275393397703   -2.63789210761258
C         4.26301216678228    0.32639722290686   -3.02572861442152
C         5.09163092348582   -0.25439402669342   -2.08279718307077
C         4.69940967613802   -0.24398058307064   -0.74996868489624
N         5.54323565473427   -0.86393426688693    0.24480871669916
O         5.07266882539421   -1.03570760111265    1.34897304294756
O         6.65980418866845   -1.19022753042527   -0.09049532933119
C         3.50266967448347    0.33030275648330   -0.34601314297886
O         0.98776607757050    2.53705342262481   -1.53836382675891
C        -0.68687794321074    1.48769635834595    0.30356062416906
C        -0.72652449708970    2.30477007062726    1.62696783725168
O        -1.31547350360104    1.69740731612775    2.65488422853933
O        -0.27120032835454    3.40498834170869    1.70248689379600
N        -1.53576990563813    0.32332369952004    0.35961579801144
C        -2.88864194567740    0.31592495932730    0.23266280626002
C        -3.49840656106258    1.68327463291271    0.10275251151189
C        -4.17150065440184    2.23769210928818    1.17963718918181
C        -4.74665644383023    3.49327079459965    1.04010417009336
N        -5.44676776318511    4.07482646832402    2.16495832437157
O        -5.48164344858923    3.43708735427547    3.19301586364692
O        -5.95807987255796    5.16037097313293    2.00327532783984
C        -4.66906399859682    4.19723997270699   -0.15371412079464
C        -4.01354492825375    3.62547451653769   -1.22894799524831
C        -3.43132682226283    2.37477935083861   -1.10343537789401
O        -3.54302979950049   -0.70152018948137    0.27781793215103
H        -1.68850889956733    0.49468814984905   -4.01435919787814
H        -0.41132769031118    1.58582415476312   -3.40452408076291
H         0.03104618292340    0.04133920704663   -4.17643105265055
H        -1.32232633380451   -1.82670116702182   -4.15944447151206
H        -1.84644895749592   -4.16751590362894   -3.73229531398127
H        -1.88393157387038   -5.03784956013429   -1.41783478448353
H        -1.39933364504810   -3.51661397444931    0.45884886901759
H        -1.01154766997162   -1.46998147027518    1.31309636481639
H         1.28690343223456   -0.99765921106793   -0.29238391930939
H         1.43896069207227    1.41654435537235    2.37239375838274
H         2.43672245580420    0.96455991707242    4.56415625392047
H         2.95266227173664   -1.36210119684684    5.22407142807652
H         2.47514760604074   -3.21055923810308    3.70660739217414
H         2.77181887625892   -4.35318543915572    1.66991312658956
H         1.16139966247744   -4.63918776056840    2.38932014206790
H         1.39676978769840   -4.81323664130275    0.63247189504473
H         2.41222979015810    1.35841816454720   -3.36467561438294
H         4.55563072849184    0.33793241789400   -4.06408424292135
H         6.03107317514330   -0.71076834729012   -2.35479753599334
H         3.26158722929366    0.34702062213044    0.70539509218417
H        -0.93770667755797    2.18458206335021   -0.50998868418599
H        -1.61136232997349    0.79886489409952    2.43421980660293
H        -4.26147109931425    1.71558556671916    2.12047135328422
H        -5.12509405802343    5.17288599246193   -0.22176782404076
H        -3.95308179795778    4.15587174527285   -2.16623020053385
H        -2.92651214113869    1.92574932892791   -1.94551870822153
