66
 energy: -120.836797722765 gnorm: 0.000402205936 xtb: 6.3.3 (4ae9cef)
C        -3.99317216669321   -3.30608000916071   -1.16020933403262
C        -3.67651331993521   -4.16312969055502   -0.14631995437571
C        -2.73531321838700   -3.77956733973269    0.81863425139009
C        -2.12823321684195   -2.55714620816465    0.75344909685522
C        -2.41548210307956   -1.64970781785881   -0.29034707970237
C        -3.37524684176486   -2.04205051873741   -1.26453059204314
C        -3.68340364255980   -1.17638369712886   -2.33376453798139
C        -3.04344087931646    0.02205446850791   -2.46534292936579
C        -2.07402303847665    0.40111358705125   -1.52984316165897
C        -1.77646761800620   -0.39051393952312   -0.44917444836220
C        -0.68546734932880    0.04551907973148    0.49306218859611
C         0.70681528832200   -0.27448480852296   -0.08796049682670
C         1.20275896507899   -1.60743093842817    0.40922940056122
C         1.86827858293561   -1.67250458182949    1.60732837513820
C         2.27611165622648   -2.89807812194400    2.14815085992150
C         1.97553226881742   -4.06184273843930    1.50149626147166
C         1.26983461696385   -4.04359349586752    0.28106995549834
C         0.89033284372605   -2.80050085303689   -0.29702498230603
C         0.19912665741324   -2.82942612388745   -1.52852308325278
C        -0.12969255618137   -4.01228078142286   -2.12876024531480
C         0.22391523008933   -5.23503708264282   -1.54214180249888
C         0.92004725958901   -5.24638230113617   -0.36809984703900
N         1.52584801628280    0.84382309266255    0.36130432026631
C         2.82542687752003    0.92186682519183   -0.03914983783475
C         3.54662627652243    2.13511667837478    0.42184700048856
C         4.22839987734650    3.02925547763586   -0.35327549416956
Br        4.20425418721446    2.97808687944626   -2.23519712237122
C         4.87518332522249    4.05048362474636    0.37959249663101
C         4.69164620420749    3.90159342783001    1.71356659502903
S         3.72296518760177    2.53534047432808    2.09561007274188
O         3.36354442588917    0.05820114773501   -0.69276131262998
C         0.72290676748740    1.97592913437298    0.76274869514101
C         0.93599613944643    3.16254654000757   -0.20785592416472
O         0.59618472357275    2.82875132350015   -1.44007336387934
O         1.38005280638332    4.22911575394501    0.12010380184863
N        -0.63247978203362    1.48618824395020    0.70542877688886
C        -1.73240310148591    2.21634586319623    1.01300837575296
C        -1.45854716913891    3.67513440369539    1.18134438665161
C        -1.75141892832333    4.66790594575013    0.29186971571066
Br       -2.44277386742649    4.33325749028536   -1.43031620955206
C        -1.42518477962211    5.96606483490933    0.74848228476009
C        -0.90203618323437    5.93738855794280    1.99727645223968
S        -0.79494349377883    4.34338892956929    2.63033709766498
O        -2.84278790846306    1.74966153727875    1.11000985626936
H        -4.72037333656372   -3.58517331089190   -1.90939417769945
H        -4.14547734731838   -5.13352034205710   -0.07870137708045
H        -2.48826733450448   -4.46007594956720    1.62012036585840
H        -1.40702499153049   -2.30269578522891    1.51415751931697
H        -4.42694858972435   -1.48677433243886   -3.05360920425951
H        -3.26804483849134    0.68398869699415   -3.28788143088282
H        -1.55665832233010    1.33873351319712   -1.66985385574784
H        -0.80213241940023   -0.43268689064045    1.47250504371858
H         0.67703828820228   -0.25712811271822   -1.18351534693610
H         2.08896131574155   -0.76426405240303    2.15075513354140
H         2.81438483600648   -2.90920562583689    3.08423655873178
H         2.26696965744103   -5.01524629428357    1.91780677325112
H        -0.08605118596421   -1.91007080923965   -2.01377870828998
H        -0.66793956565278   -4.00761633446604   -3.06486426784057
H        -0.04903730022557   -6.15968563313302   -2.02876154472940
H         1.21351166945915   -6.18075275504227    0.08901490415022
H         5.43912865540032    4.84058154168753   -0.08022668706549
H         5.06877875718693    4.51310489048527    2.50824916421460
H         0.99052295913754    2.31799492658729    1.77835637657927
H         0.75099700866251    3.54768298958852   -2.07719035702503
H        -1.57762584231471    6.85394147717334    0.16333659140317
H        -0.56746409299362    6.76087691850750    2.59495796862046
