32
 energy: -49.189065217310 gnorm: 0.000663705761 xtb: 6.3.3 (4ae9cef)
C        -5.82029817856189   -0.38611380102424    0.45159792003694
O        -4.68935635956399   -1.20215134837669    0.61731607709455
C        -3.46184181329574   -0.67141153106279    0.32881179839030
C        -3.24440773761295    0.61124213072616   -0.13672558356111
C        -1.93089408652824    1.01360760309797   -0.37738853088930
C        -0.84757201935195    0.14063774971082   -0.12669543983968
N         0.31472116308943    0.80734204673212   -0.46217464337313
C        -0.03051512656212    2.05049432124158   -0.94124741796726
C        -1.37501209868205    2.22133323403682   -0.89131266350206
C         1.63141195028792    0.38911824819484   -0.32825589700435
N         2.49152767355094    0.91267511787980   -1.19518183319295
C         3.76265159809463    0.56980684074977   -1.11725859230681
C         4.27436987726686   -0.31567437634589   -0.17716368624593
C         5.72800276782779   -0.66388337902754   -0.12894970064918
C         3.37034034550462   -0.83609452829855    0.74615523069994
C         2.03739006449470   -0.48385987310704    0.68448873916139
C        -1.08090470240609   -1.16376676018234    0.29390089067025
C        -2.38163310979565   -1.54981388708815    0.52134304469597
H        -5.77169336049570    0.50367005334485    1.08860752952148
H        -5.94572624839705   -0.07735491480172   -0.59179772636788
H        -6.67197796006059   -0.99572960418456    0.75028428688796
H        -4.05153402455194    1.29955687743178   -0.32995208509990
H         0.74253052323182    2.71828965785903   -1.26647682863493
H        -1.91976111586018    3.09705714485582   -1.18326555799556
H         4.40807862506453    1.03163539720081   -1.85342566530855
H         6.20843610477783   -0.44985667896716   -1.08045398379449
H         6.22690965281951   -0.07882844856828    0.64442395117668
H         5.86343663477993   -1.71706944049454    0.10882835649204
H         3.71703065837172   -1.50590907050850    1.52111354510248
H         1.33521733287602   -0.83999547276981    1.41979214764338
H        -0.28154524026146   -1.87726010631677    0.41725570687621
H        -2.60738179004837   -2.55169220193982    0.85000261128341
