62
 energy: -110.624124126597 gnorm: 0.000607247961 xtb: 6.3.3 (4ae9cef)
C        -2.00758757438070    0.57798665930387   -1.24969938930010
O        -1.08013222391531    1.48461890439798   -1.66333890530799
C        -1.27356758906855    2.14079584322476   -2.89666731917519
C        -3.18844657972634    0.30415320830105   -1.93258769239806
C        -4.07823748993381   -0.63818255450384   -1.44845690107994
C        -3.80968666437152   -1.31779272244535   -0.27558273789450
C        -2.64271139191509   -1.04256294651638    0.41372687251495
C        -1.73878471231832   -0.10251023643872   -0.05268550759790
C        -0.44747490386751    0.09535073184981    0.69486417680328
C         0.68707965830018   -0.72476261849648    0.04520572756340
C         0.81465695132065   -2.07299648750714    0.69608383875773
C         1.51333709920979   -2.24113130325696    1.87779863264064
C         1.59497897911646   -3.48370467422540    2.48271882912841
C         0.96145931964807   -4.56475212496837    1.90095430215333
C         0.24348504506387   -4.41237708911792    0.72627065653706
C         0.15892200708866   -3.16766689396979    0.11479604465624
O        -0.54324339247372   -2.91142323682024   -1.02488479461437
C        -1.18648407245720   -3.97824003748336   -1.67662747343740
N         1.86190155078458    0.11881981659722    0.21886513921557
C         3.04768368693104   -0.33575055018100   -0.30330878464746
C         4.18968019102261    0.58592060904809   -0.32872129372538
C         5.43156801183273    0.32509974759494   -0.85233795444870
C         6.19018368133229    1.50157326024877   -0.68376884208149
C         5.36233489972020    2.39278712137808   -0.07102313696357
O         4.15487126315847    1.85350357124166    0.14949611759552
O         3.17678763824906   -1.48978250524718   -0.66305665726224
C         1.45087296167535    1.49504314654107    0.23943442247180
C         1.61090811896390    2.13587807478015   -1.18068017124476
O         1.29243450440033    3.40725369666105   -1.25231304021642
O         2.04225030059985    1.50048144998117   -2.10008605293242
N         0.07099713788753    1.45107751252678    0.69568008276987
C        -0.55824251529041    2.57081534467385    1.08441646781241
C        -1.88327290684761    2.48656234483038    1.69207849258716
C        -2.76508717073573    3.52651714268581    1.87384265140098
C        -3.89683202088053    2.97659468225295    2.50623091789110
C        -3.62171972896805    1.65055119034994    2.67207870933073
O        -2.41454901571623    1.34636132524753    2.18778891964271
O        -0.03324083499073    3.68398848515678    0.93935399588726
H        -1.34095091259996    1.42530114816997   -3.72067787992899
H        -0.39417421987854    2.76637825353909   -3.03617143738736
H        -2.16841441280222    2.77065888591956   -2.87563074125601
H        -3.41810756305044    0.81836362014432   -2.85181281226309
H        -4.98536363854704   -0.83906290223305   -1.99864930902876
H        -4.50123495327722   -2.05640846014971    0.09947629553058
H        -2.41794851805020   -1.56857671327935    1.32994652202753
H        -0.58035150034708   -0.23595934916801    1.73369410627383
H         0.49032870701080   -0.86545776424894   -1.02510022243085
H         2.01196199731692   -1.38994818702273    2.31727348794647
H         2.15179754324099   -3.60517731121759    3.39903546473649
H         1.02101556210093   -5.54056591589925    2.35991578556339
H        -0.24348578221754   -5.27216508957445    0.29382896975163
H        -0.47493626344502   -4.74939214622574   -1.98724644286167
H        -1.65344547280435   -3.54186078308853   -2.55844598142804
H        -1.96118449871427   -4.42564106603487   -1.04479729373397
H         5.73569518782959   -0.59842009970210   -1.29881693854424
H         7.20634405946475    1.66449484586425   -0.97820823126660
H         5.50867622484382    3.40576514657838    0.24980265557610
H         2.04388521418439    2.09502532270817    0.94673789273932
H         0.86020216878285    3.72704600734885   -0.40066986656615
H        -2.60131160456034    4.54337041213849    1.58254713191501
H        -4.78758964372784    3.49245275364261    2.79927393395397
H        -4.18849889920565    0.85168150408984    3.10883556764930
