62
 energy: -99.680355600444 gnorm: 0.000403185206 xtb: 6.3.3 (4ae9cef)
C         3.64788604552986    1.25326068511018   -1.28317224438759
C         4.65075252449913    0.67432802516600   -2.00704928656035
C         5.61783915846721   -0.14076544482714   -1.38110412469622
C         6.66001414234763   -0.75767980669133   -2.10372938309384
C         7.58745772417261   -1.53263208046272   -1.46564344944877
C         7.51533007444952   -1.72709772674589   -0.07703884245371
C         6.51703696222441   -1.14377021688637    0.65145252763415
C         5.54467663429200   -0.33755227476949    0.02332074804944
C         4.50638851718978    0.28217165853749    0.74779594110130
C         3.56619193474821    1.04714844954494    0.10881821196222
C         2.49734638243782    1.72577732134166    0.89858368178382
N         1.23223234363619    1.27532964988595    0.69338692264907
C         0.15278231141820    1.93219036680770    1.38981676643318
C         0.18550891404537    1.60299960060098    2.90871190665484
O        -0.60022673045202    2.36992059248019    3.64270632644312
O         0.82409514378704    0.68953341734823    3.34350933820685
N        -1.06147115908586    1.38040210653364    0.80455339891015
C        -2.23476414613356    2.00656906265903    1.02031750227982
C        -3.46940028893722    1.37371908421765    0.48467630144836
C        -3.96631924209020    0.23605678000209    1.06782975074495
C        -5.17340974566296   -0.33478885974629    0.61613950584905
C        -5.70648981803200   -1.50762828323205    1.19116686623783
C        -6.87386224521984   -2.04309539465315    0.72442743248107
C        -7.56125733550664   -1.43151750025998   -0.33627442277234
C        -7.07122056531224   -0.29321346172798   -0.91268781453227
C        -5.86927126105408    0.28559995581038   -0.45511398490551
C        -5.34187675063567    1.46610484602540   -1.01980530423736
C        -4.17642221133772    2.00571424291767   -0.55634884403318
O        -2.26802552475391    3.06242942953324    1.64553126034989
C        -0.72124840788678    0.07589201918720    0.26303798082707
C         0.71819843731883    0.28395230944373   -0.22774278520272
C         1.41192818344644   -1.07587226022046   -0.27512917731104
C         0.40425647587883   -2.13262931498497   -0.76730663324707
C        -0.67377174092534   -1.51002247280067   -1.65707520846700
C        -1.54831535440909   -0.50807749058007   -0.87675614641806
O         2.71647884808079    2.63756413893495    1.66913991523797
H         2.91972399915784    1.88862489687649   -1.76660596028845
H         4.72018122640810    0.83641881287033   -3.07341819274364
H         6.71258453757315   -0.60392572919954   -3.17234026651682
H         8.38432950647509   -2.00051472458575   -2.02496717825513
H         8.25842621437264   -2.34139032065338    0.40986339855397
H         6.45705576551259   -1.28761002123450    1.72040481573402
H         4.44993400499497    0.14581607319325    1.81760423200017
H         0.19280600600133    3.02364604083842    1.25413277797660
H        -1.17275703180473    2.95588832098026    3.09161878925920
H        -3.44238877628646   -0.23050537150559    1.89067834409997
H        -5.17450534499477   -1.97309664060366    2.00846245638156
H        -7.27762937151816   -2.94045971071818    1.16911772472727
H        -8.48295057487871   -1.86854850616442   -0.69085475891113
H        -7.59819031964288    0.18208284023129   -1.72746328288901
H        -5.88245432549390    1.94299847890913   -1.82440001503214
H        -3.78032602562450    2.91761719149050   -0.97721597169827
H        -0.69612375061325   -0.63027576717682    1.10481842758964
H         0.69159641228620    0.72255977646994   -1.23600670857913
H         2.26970950063573   -1.03506689435462   -0.94539454232091
H         1.77447429901842   -1.33187036827772    0.72062436853663
H         0.93460329251374   -2.90380070107146   -1.32626827075965
H        -0.07715744536156   -2.62154031067366    0.08050239126428
H        -0.19081753068225   -1.01437199681556   -2.50028794959264
H        -1.30955509504181   -2.29613542834237   -2.06516184873462
H        -1.89071535242645    0.28727799144267   -1.54007024587417
H        -2.42890305112003   -1.01414108542390   -0.48287616745909
