78
 energy: -128.016085631960 gnorm: 0.000386669297 xtb: 6.3.3 (4ae9cef)
C        -3.90209036300525   -4.71867771617914   -0.71314287422600
C        -3.20009239514287   -5.53915749291248    0.12141080467193
C        -2.13759771617049   -5.01897435338797    0.87254781969160
C        -1.78742934958847   -3.70239847963909    0.76684170414599
C        -2.47044585558058   -2.82746776263496   -0.10696552971368
C        -3.56197154731526   -3.35653083823222   -0.85055862150741
C        -4.28013495793622   -2.52196627680823   -1.73082198796151
C        -3.92080220765112   -1.21581147237016   -1.89575866980210
C        -2.82305156952827   -0.69668140163826   -1.19861451954391
C        -2.11309398760298   -1.46660682139647   -0.31209104644864
C        -0.88719150398435   -0.88772200471671    0.34619408445984
C         0.34860492850428   -1.02224545147103   -0.56854808340411
C         1.07703556648347   -2.31096811622024   -0.29683596669824
C         1.97758023401755   -2.36289992543413    0.73755427696316
C         2.61706921640058   -3.55733047213999    1.08934563987129
C         2.31906800961154   -4.71144833521291    0.42449861903324
C         1.38057733892823   -4.71067725330912   -0.62715528442318
C         0.75641872247812   -3.49323905023283   -1.01723871416133
C        -0.17245490223952   -3.54087416468374   -2.08036477973348
C        -0.48872615901604   -4.72016944146183   -2.69369361433562
C         0.11341552893349   -5.91999909372813   -2.29118440573421
C         1.03679068699414   -5.90963201770119   -1.28630016613901
N         1.13129045167168    0.16084794098720   -0.22870635016985
C         2.35112423556363    0.34891301885920   -0.83410072873610
C         3.10562604210483    1.53087651231790   -0.37767339208567
C         3.24932025684268    2.12216317953712    0.85240448823068
C         4.20594504364241    3.15144573376655    0.69922401091637
C         4.71119822817535    4.07383292614074    1.75400068774416
C         4.58220472920565    3.11234986657555   -0.62077608045819
C         5.54258837362013    3.94936802628238   -1.38707900123303
O         3.92807728015782    2.13148120375836   -1.26400414494270
O         2.79811358990797   -0.44663219342825   -1.63268639688712
C         0.23465693579292    1.22631403345581    0.17497552083088
C        -0.03836957416599    2.13929188391076   -1.03977783374682
O         0.87310855782925    3.10364936827756   -1.14343892170761
O        -0.92571849388791    1.97833966404872   -1.82800798744375
N        -0.95969418994281    0.54626604561016    0.59444569590223
C        -1.99346114889077    1.05707651904486    1.32178904228165
C        -2.04448527431786    2.50923578663148    1.50616626700033
C        -3.00543947027917    3.22676904215783    2.17356478117248
C        -2.65459397525158    4.59075125201241    2.06000052551411
C        -3.38310766703624    5.75995473419696    2.62566878910297
C        -1.49540497154732    4.61646571409815    1.32610461072382
C        -0.64118207742334    5.74860505769697    0.87981845760027
O        -1.12251676702165    3.36374475274203    0.98842352612083
O        -2.85605108036023    0.33487072253878    1.78770296128979
H        -4.73166559679063   -5.10140418319713   -1.29110045919538
H        -3.45991046111006   -6.58346474986449    0.21405423651161
H        -1.59123941160879   -5.66850360252759    1.54070392008943
H        -0.96487745470498   -3.34130975843271    1.36335248493920
H        -5.11369300302318   -2.93989777392280   -2.27742124733427
H        -4.46559303885866   -0.57472396016914   -2.57284189420247
H        -2.53260695621216    0.32801627323672   -1.37331023581342
H        -0.70283395135951   -1.38232975948833    1.30710328979140
H         0.04486907282180   -0.95761475991887   -1.62016015042026
H         2.20462941846969   -1.46443931759428    1.29328735570060
H         3.33336579839726   -3.55544703310084    1.89770626978459
H         2.79095012661481   -5.64416443534396    0.69859593341194
H        -0.65618101601814   -2.63879967106230   -2.41875691180573
H        -1.21109691707987   -4.73147764291973   -3.49644183830652
H        -0.15243454222101   -6.84328584363967   -2.78451397684134
H         1.51894744800971   -6.82474512187991   -0.97234069150261
H         2.76359526452233    1.84404024616316    1.76625409988834
H         4.00299603147479    4.13173867703628    2.57648856894282
H         5.66381420003851    3.71826623970777    2.14679398624539
H         4.86642289303301    5.07100484082522    1.34726261951045
H         5.27051392579410    5.00241265027424   -1.32471927053535
H         5.53794449459792    3.63847840113934   -2.42784612294427
H         6.54981344376708    3.83662520270988   -0.98818845302891
H         0.67220458621119    1.83514685457847    0.97439085998790
H         0.72143684018565    3.63207094275901   -1.94530195450127
H        -3.85312716244682    2.80924625956730    2.67611020752003
H        -2.79829429692125    6.22832206001741    3.41720611813421
H        -4.33470684474782    5.44082408919865    3.04046979569538
H        -3.56566143765522    6.50755090160645    1.85562000411668
H        -1.12700195579048    6.30335957841842    0.07680275263767
H        -0.46470767032681    6.43561691788989    1.70503098366455
H         0.30942242096257    5.36439162822291    0.51855450783078
