66
 energy: -138.422195040747 gnorm: 0.000837637626 xtb: 6.3.3 (4ae9cef)
C        -2.98523785115006   -1.13826286760992   -0.49002439893707
C        -2.88045206352197   -2.47714807853247    0.18944022786931
F        -3.98018857771885   -3.22338924806692    0.04128721910797
F        -1.86410354887112   -3.21728663268161   -0.30318297729737
F        -2.66300263866271   -2.40815895884978    1.51615865109591
C        -4.16859568822546   -0.83321746255100   -1.15483728477567
C        -4.29050620060039    0.35089473125334   -1.85624600868335
C        -3.21857483577569    1.22452899843427   -1.91871991162314
C        -2.04524612386565    0.93003884268541   -1.25052889671823
C        -1.91610792735687   -0.23915196228842   -0.50618588668309
C        -0.61934700401179   -0.48200855407336    0.23379424529764
C         0.52814789159967   -0.80273473347830   -0.75481963561731
C         0.96571885795200   -2.25004838759267   -0.77105160104271
C         1.69021636662711   -2.89738267940498    0.23523160649155
C         2.18934284441739   -2.20928208565322    1.47764117655717
F         3.22171226899895   -1.37635237250644    1.23671103484666
F         2.63725492860297   -3.07094610553631    2.40185349893373
F         1.26517017898075   -1.46582187499108    2.11577460851285
C         2.03223187316571   -4.24034547890454    0.09742473143844
C         1.65526920415452   -4.95702549980419   -1.02064065554257
C         0.93684408739869   -4.32775905582577   -2.02048482759167
C         0.60470422953131   -2.99413908814273   -1.89014251580238
N         1.59734705694523    0.12928878427386   -0.42257580047228
C         2.59224609819709    0.28481327361941   -1.34700068664990
C         3.55256809357728    1.39723023745327   -1.10101916247534
C         3.69460847129244    2.36150812245458   -2.09413371712623
C         4.57287048665401    3.41530374064709   -1.92660302686830
C         5.33191503452462    3.48687010088277   -0.76846771472877
Cl        6.42601389756346    4.80414025876008   -0.54762644518493
C         5.22890440061264    2.51179948342803    0.21151313352349
C         4.33546149303197    1.46989856626845    0.04506758857428
O         2.66116929246830   -0.44883423889557   -2.31060987582895
C         1.20680765248486    1.08536549678706    0.58085471984711
C         1.22071002937432    2.54023460757611    0.05332635416981
O         2.06750631135908    3.30841029935920    0.71683866908860
O         0.60081907657775    2.87767038011059   -0.92119792894006
N        -0.15957646226209    0.72172080277460    0.90754818105232
C        -0.91833414868768    1.67692368141250    1.49874683101269
C        -2.29784701808863    1.28951575184625    1.89190625303587
C        -3.37213493171781    2.05849341896408    1.45698207670272
C        -4.66191584799431    1.71612448202653    1.81198686418859
C        -4.87129560024094    0.61901571787929    2.63516191443318
Cl       -6.48133979696816    0.17583185760156    3.06450034850375
C        -3.80490826630915   -0.12209442557888    3.12012271327510
C        -2.51787823057395    0.21279208482706    2.74210985824710
O        -0.45065925659114    2.78409415521962    1.70230014892079
H        -4.99160898301825   -1.52967975683726   -1.12396308686129
H        -5.21486390827866    0.58012461440133   -2.36245043701699
H        -3.29307677887815    2.13961637676565   -2.48535633914347
H        -1.21908288971989    1.62533422652810   -1.29582304043536
H        -0.73366335510437   -1.28997184398753    0.96042408524179
H         0.19831288664500   -0.57111028998531   -1.77816603122315
H         2.59856042412613   -4.72625705544703    0.87649694342371
H         1.92843568625079   -5.99671803917719   -1.10785411056869
H         0.64032388472724   -4.87051147839983   -2.90425827327464
H         0.05416414340359   -2.50816840491118   -2.68033740528964
H         3.10235293406784    2.28650411406833   -2.99305701673445
H         4.67314876655770    4.17248114933332   -2.68818064090085
H         5.84018598276593    2.57063057669569    1.09780488425461
H         4.26528737853371    0.70397919339412    0.79924895829043
H         1.84280013293016    1.03994180883693    1.47760613718793
H         2.01216429659378    4.22812306564936    0.41246358089092
H        -3.18793536611710    2.91673377128008    0.82972996591137
H        -5.50128902958104    2.29567222600024    1.46176763713228
H        -3.97846082226199   -0.95900820567449    3.77691782457700
H        -1.68406149056703   -0.35883713410544    3.11879966839394
