74
 energy: -123.304811097322 gnorm: 0.000570799799 xtb: 6.3.3 (4ae9cef)
C         0.95376277338645   -1.23596818862547    2.74939664961311
O         0.19228842344385   -0.10288029794497    2.80854368212848
C        -0.34018481491491    0.29387320988337    4.05031537023272
C         1.31491647024370   -1.97410335487514    3.87093178889128
C         2.10071606668684   -3.10639862815171    3.74573938487522
C         2.53254620881689   -3.51779177421193    2.50035578027114
C         2.16503279319379   -2.79170663144987    1.38138954628360
C         1.37543957491825   -1.65614854882439    1.47930042737757
C         1.03231572832710   -0.91294153884362    0.21060807145559
C        -0.46822304554130   -0.55880928567538    0.02749986166147
C        -1.05644562154753   -1.28801041945136   -1.15399237529549
C        -0.54307753539349   -1.07689319717492   -2.42329208020512
C        -1.06581325214180   -1.73148038998383   -3.52468675273271
C        -2.12443242219780   -2.60311521942074   -3.35414471023367
C        -2.65067346834293   -2.83083753068713   -2.09428536828272
C        -2.11756763600393   -2.18819235038914   -0.98310071554586
O        -2.56523616759868   -2.36675591415840    0.29249473515963
C        -3.70660864278562   -3.16537144548779    0.49935344903995
N        -0.46691420144186    0.88181013575077   -0.18591602316314
C        -1.35802941427581    1.61861202611989   -0.90685511420078
C        -2.70253805967919    1.03100352120646   -1.02428427318303
C        -3.50135595085258    0.60808715166472    0.00631524431387
C        -3.29347165077805    0.62758805677773    1.47682798566480
O        -4.68850103444686    0.19364718895833   -0.47751960621991
C        -4.66050310171712    0.36196397551303   -1.81949156727182
C        -3.47644394423264    0.89334755061981   -2.22108893897689
C        -3.04099378878323    1.26703027473632   -3.59163903153541
O        -1.04936130191533    2.69991175695266   -1.37521584346904
C         0.80197308831328    1.45264347649289    0.17801091550821
C         0.72431442488106    2.09968356642227    1.56854261700060
O         1.92281060370759    2.18047218786415    2.14131585810694
O        -0.27536959271184    2.56453726396800    2.04189045755930
N         1.72687968376672    0.36340358175417    0.08991503027078
C         3.01285808781403    0.41632915374891   -0.34259868967417
C         3.51401033509590    1.77774100459477   -0.65184232784584
C         4.42903054181480    2.49680127450469    0.06474251557435
C         5.12639358026061    2.18676737706680    1.33833953367162
O         4.68072332066198    3.66807298632673   -0.55300434671348
C         3.94331964759418    3.69471564264173   -1.68200732007854
C         3.19975693043590    2.56245497263840   -1.80981979864803
C         2.28090866485773    2.19473990319229   -2.92435250342231
O         3.68227972618286   -0.58935685936117   -0.46968307456532
H        -0.90773203465833    1.20057817833387    3.84433587028049
H        -1.00806307781238   -0.46999014778394    4.45951188627877
H         0.44832985623293    0.51534509339975    4.77717053130880
H         0.99042231657282   -1.67102614887587    4.85367569430356
H         2.37355412955103   -3.66071983371141    4.63139475527153
H         3.15118990874202   -4.39549847226392    2.39770640599953
H         2.50914359604435   -3.10139843287203    0.40681467570855
H         1.37576507719295   -1.54102251713182   -0.62150903474376
H        -1.02796366599204   -0.81543482555153    0.92838002331258
H         0.27054209109713   -0.37770658748884   -2.54970262643130
H        -0.65087399674606   -1.55979647544745   -4.50624020971375
H        -2.55073869381541   -3.11351221113924   -4.20459850427754
H        -3.47840202275032   -3.51365521515463   -1.98983706742822
H        -3.89286226124796   -3.13940727310575    1.57211877159092
H        -4.57615103879405   -2.76091997925758   -0.02802447058719
H        -3.53588933067965   -4.20139685246858    0.19110331257036
H        -4.18284863297754    1.02001322673814    1.96705322369446
H        -3.11470393146951   -0.37862305435801    1.85506847392950
H        -2.44041255802735    1.25733873677840    1.71438678985915
H        -5.53923412482878    0.08070739611867   -2.36458947768137
H        -2.50185350774887    2.21099176654287   -3.55338650545033
H        -2.37156914993643    0.50834100022766   -3.99584568150464
H        -3.90028520629277    1.36394817110295   -4.25019980530570
H         1.04838590541293    2.27603239327919   -0.50895023766727
H         1.86003610625541    2.63345530487664    2.99779879999204
H         6.20047415410743    2.11520366964647    1.17051371124237
H         4.76265263436043    1.24012120807444    1.72503903708071
H         4.94973885546581    2.97316291942607    2.07054422509129
H         4.03428420429260    4.55948669927316   -2.30809876581954
H         2.33098337786187    1.12334028432364   -3.11027741963243
H         2.56585969980399    2.72317871506382   -3.83085483643207
H         1.24768929367146    2.46038259873454   -2.69350598823907
