92
 energy: -138.405337402660 gnorm: 0.000181545280 xtb: 6.3.3 (4ae9cef)
C        -1.44739450673965   -3.70848659591459    1.93528120586471
O        -1.03942329302457   -2.77639909990500    2.84690805744129
C        -1.68059232517427   -2.74393927796089    4.09847566716294
C        -2.30608192671310   -4.75926657191723    2.21612295877009
C        -2.64503401609082   -5.66162652461334    1.22044187916002
C        -2.13244036923778   -5.52196070080611   -0.05262510988131
C        -1.28090040144715   -4.46652352060074   -0.34228786674791
C        -0.93535028063100   -3.55399409685137    0.63508148862633
C        -0.00138376690700   -2.40133503459814    0.41046232862609
C         0.74023982736254   -2.29468642178949   -0.92657126116541
C         1.93881726796003   -3.19449819234295   -1.03785566977856
C         3.02462560996907   -3.01485338210590   -0.19757322087300
C         4.15022062151449   -3.81276066291738   -0.29934446641846
C         4.19220362549373   -4.80248548429697   -1.26194526783867
C         3.12109533941532   -4.99511927408046   -2.11682083838160
C         1.98744176988311   -4.19719969931335   -2.01646712769492
O         0.89047870950207   -4.32812676769691   -2.81232313073434
C         0.95590192830067   -5.19824491093371   -3.91598365535434
N         1.14728242440366   -0.88757800422989   -0.90357238186978
C         1.87732922819352   -0.37814315257334   -1.93418769814661
C         2.24203334978543    1.06148401982859   -1.79954899182532
C         1.96218087210285    1.93650129994685   -2.83905911955083
C         2.30629879239337    3.26908142745287   -2.70851957491567
C         2.93019482446613    3.71795419712014   -1.56025302264225
C         3.25047402619743    2.84902110335068   -0.51923021354709
C         3.92148880873293    3.39194910687610    0.73168290528188
C         4.19281973947980    2.30472391337378    1.77489572389050
C         5.26115850337938    4.03837984749522    0.35446954806108
C         2.98662221457850    4.43575090920322    1.35974728128187
C         2.90566204052522    1.51414436674072   -0.66482917471077
O         2.22978387876978   -1.06447945308616   -2.87093513300420
C         0.37733716225404   -0.12802887082982    0.07472892132027
C        -0.22466348040801    1.12896392778634   -0.57080595953561
O        -0.92860033364715    0.82319292434802   -1.65668238533406
O        -0.04864535326651    2.25024669708742   -0.18196203024228
N        -0.61650950732921   -1.07664813431703    0.52324350698737
C        -1.94239638802224   -0.81972182785502    0.70004694717912
C        -2.24290920897433    0.59649865041534    1.06626459677618
C        -3.25553689756629    1.26918044221884    0.39126386039103
C        -3.60423804163088    2.56859004055151    0.72882630641835
C        -4.68664388165300    3.34566386536468   -0.00392466785216
C        -5.79287423594246    3.71763011649675    0.99317596961944
C        -4.07139011905737    4.62006664621639   -0.59921104355129
C        -5.32221469660669    2.54077992326175   -1.14089033425758
C        -2.92420176130464    3.16419576036680    1.78931209024670
C        -1.94633355383795    2.48626867572703    2.49321978935850
C        -1.59755970334043    1.19717366451615    2.13864232984180
O        -2.81375650955770   -1.65974706368310    0.63371173058104
H        -1.27904799004480   -1.87249542469717    4.61455793659953
H        -2.76261802704544   -2.63004807471499    3.98526748870673
H        -1.46440360965554   -3.64118418083415    4.68813797982682
H        -2.72152146718055   -4.88436169725959    3.20353605834299
H        -3.31746915455448   -6.47458573506979    1.45182185430141
H        -2.39848030813092   -6.22521500643961   -0.82702158310707
H        -0.88791626946738   -4.36127051897000   -1.33949831972437
H         0.75378099093875   -2.44391735211356    1.21332621341086
H         0.06885043497809   -2.46252293994548   -1.77480707382651
H         2.99444548827492   -2.22441054815442    0.53882065669094
H         4.98895487995317   -3.65656971432955    0.36172242153578
H         5.06569194640891   -5.43008042482155   -1.35875092497332
H         3.18283766404455   -5.76863452785243   -2.86567725670273
H         1.04855745766343   -6.24297513748903   -3.60069220304222
H         1.78551751254534   -4.93841843861445   -4.57962067083949
H         0.01459805578294   -5.06761437465809   -4.44830456245873
H         1.47190017132392    1.56783453712433   -3.72776722859814
H         2.08242555957632    3.96435382789657   -3.50459326594964
H         3.17283770509001    4.76663012373444   -1.48105375699594
H         3.26389902886018    1.85090531708993    2.11266641530478
H         4.68330131878015    2.74761381619219    2.63953158976940
H         4.84826224724478    1.53289164281634    1.37761857804020
H         5.92008432908320    3.30058950763697   -0.09871035750369
H         5.12494058760642    4.85204244207204   -0.35220879163297
H         5.74734674437853    4.43686705232460    1.24249629483142
H         2.00319881370269    4.00100173338022    1.52599374261822
H         2.86881396146237    5.30014055509602    0.71259742061224
H         3.38813363249476    4.77548740530163    2.31221806023995
H         3.15384584954042    0.79410129743275    0.09772231383084
H         1.01885380485047    0.20162716340039    0.91155933865699
H        -1.28330523493091    1.62490533106947   -2.07301252735111
H        -3.74783809415119    0.74174338113080   -0.40978702472044
H        -6.22045043059396    2.81808469211852    1.43069983739148
H        -5.40969246765675    4.33915094712930    1.79762294977008
H        -6.58456442826356    4.26547725932017    0.48658134857647
H        -3.68037074544083    5.27154164514348    0.17693488513716
H        -4.82304840124172    5.17143469756892   -1.16014711685436
H        -3.25386893705680    4.36803452927517   -1.27165060640067
H        -5.78880486683510    1.63390601372362   -0.76438448345510
H        -6.09279674547944    3.14011381934190   -1.62171687537306
H        -4.58595620812822    2.27394955270965   -1.89579413920808
H        -3.16251366458428    4.17521036082184    2.08282398203833
H        -1.45033773582927    2.97058298461039    3.32132299800967
H        -0.84068740488175    0.65649365997734    2.68702065743468
