54
 energy: -94.490422877343 gnorm: 0.000458130964 xtb: 6.3.3 (4ae9cef)
O        -2.72132896584235    1.78302769094855    0.71421263489501
C        -1.66265403497404    1.83240985190653    0.12880055283154
C        -1.19327332861594    3.02317161029282   -0.63447933981824
C        -1.01225625354306    4.24877610497669   -0.07160720242354
S        -0.47713152433078    5.41498626497780   -1.21077572860665
C        -0.52122397495376    4.24935394525826   -2.47190922607745
C        -0.91333185536980    3.02970092099475   -2.02832644813140
N        -0.79933605308114    0.78221152008019    0.09211185255869
C         0.58492484625562    0.84998532577530   -0.30390731329062
C         1.41260260480415    1.71720710198276    0.67253977212873
O         0.79323570069718    1.91336097387364    1.82665671124866
O         2.49934219658479    2.15570556215915    0.41123662373199
N         1.02607736010574   -0.51650000009652   -0.23854036570025
C         1.60072294219763   -1.24863644932227   -1.24635402273211
C         2.15275788917275   -0.50236264826849   -2.39699278320565
C         2.85981823608739    0.66690070898917   -2.37305628278561
S         3.37028184646767    1.14323393733626   -3.93788504627782
C         2.62816739745220   -0.24110790893028   -4.64317930177868
C         2.03625462090348   -1.02789634317630   -3.71502454154218
O         1.64752829615022   -2.45957457069314   -1.18404793686860
C         0.27359611612516   -1.19921812924239    0.80430752504519
C         0.98916085177401   -1.22190268250823    2.13419719223419
C         0.31383398011309   -1.68403238485064    3.25811040580722
C         0.94334944283374   -1.72259677490892    4.48837701501590
C         2.25829348985420   -1.30487212679176    4.61037478568336
C         2.94245519715406   -0.86430608649628    3.49177724742218
C         2.31360620239623   -0.82763627512116    2.25841674583810
C        -1.07427928284299   -0.43752650377668    0.84489289711196
C        -2.19647716133570   -1.21106780901427    0.20147222841486
C        -2.14156822550009   -1.51850414796976   -1.15262608698795
C        -3.16240466791380   -2.23592163172915   -1.74790465564176
C        -4.24808527951852   -2.65197913538042   -0.99577272801390
C        -4.30969102060362   -2.34492658030888    0.35225745672289
C        -3.28819463013223   -1.62672232308450    0.94851080107822
H        -1.15937225291091    4.52541909662061    0.95299820623520
H        -0.25685306733786    4.53919031601587   -3.46913087597684
H        -1.03571071000154    2.17155292056575   -2.66568840745570
H         0.72190501347949    1.26046675936763   -1.31164478906838
H         1.34430166373801    2.42737123217229    2.43966601638540
H         3.14139365228581    1.26311822050377   -1.52746800869347
H         2.68427188312110   -0.38733245241317   -5.70306042621720
H         1.52618422299802   -1.94935271108977   -3.92792047865706
H         0.12620639261595   -2.23560153709336    0.47336493949761
H        -0.70628691569712   -2.02655783797864    3.16394176300456
H         0.40782732224798   -2.08420065934687    5.35348164348893
H         2.75011836891837   -1.33374417775131    5.57118680507746
H         3.97277502836090   -0.55134930691179    3.57396003044298
H         2.86417998795207   -0.49990682442546    1.38879789429496
H        -1.35127814166388   -0.16595969158311    1.86954394192527
H        -1.29612438156821   -1.19605255808649   -1.74415832586695
H        -3.11085379406432   -2.47064509071821   -2.80092228612744
H        -5.04593692662132   -3.21100305389412   -1.46158895358868
H        -5.15755094084390   -2.66163313359500    0.94118399073217
H        -3.34396736358306   -1.37652151823575    1.99759588267990
