66
 energy: -113.704555272514 gnorm: 0.000363893905 xtb: 6.3.3 (4ae9cef)
C        -1.30549668713455   -2.60410081968076   -2.45763025037529
C        -1.13106306056890   -3.59376135526276   -3.40984492382267
C        -0.07333577560261   -4.47995028848199   -3.30898858662630
C         0.79854873704162   -4.38420102205862   -2.23757475041593
C         0.62613601830631   -3.39496775680353   -1.28651912774329
C        -0.41558009604655   -2.48116263118882   -1.39874704323806
C        -0.59583523335291   -1.40419381348887   -0.35320320003695
C         0.71682345626971   -0.64432559972680   -0.01307108455222
C         0.88736686122186   -0.45924802692114    1.47331425951810
C         1.91145287751250   -1.10842746833855    2.14893692909998
C         2.07376361323482   -0.92893674311133    3.51120601952012
C         1.20827452044249   -0.10610920097167    4.21064977158600
C         0.17631977542278    0.53383479834468    3.54461605125906
C         0.01611301425114    0.35917979012921    2.18287671570156
N         0.54981589189683    0.62753730708033   -0.70201671460314
C         1.24079510919348    1.77865726572846   -0.48974647212118
C         2.46433743526056    1.62166649962706    0.33633193868361
C         2.66717146018784    2.30454055765510    1.48801912120072
S         4.13382964889009    1.88879569456698    2.29462671200512
C         4.54587530555281    0.77477324055637    1.02129003407573
C         3.55468883370534    0.74543396736263    0.02260796974627
C         3.74933185837760   -0.05866444362662   -1.10259822081671
C         4.88577565810585   -0.83206719978168   -1.18815115095144
C         5.84483644732759   -0.81401770108757   -0.17515187490584
C         5.68869358154832   -0.00586467154129    0.93176063928784
O         0.86738184497904    2.83811638368039   -0.95183358527467
C        -0.69883006261364    0.65990906674921   -1.42820703546211
C        -0.50052416325988    0.32845000845545   -2.91824943173744
O         0.74524933406525   -0.03128188582889   -3.20158620600240
O        -1.37878693680113    0.38744229870952   -3.73300902592654
N        -1.49776959517897   -0.35099119890570   -0.79071970415077
C        -2.68961557429166   -0.16186442095399   -0.13679422081316
C        -3.43847898828043    1.05940011955024   -0.49111056130075
C        -3.64971621328908    1.53085530115359   -1.74820855967732
S        -4.62787204617538    2.94863245862716   -1.80134947060501
C        -4.77122571290872    2.95079162906663   -0.06388965375212
C        -4.09183625560422    1.86028126012669    0.50775774446642
C        -4.10146811414154    1.70424745781405    1.89402871128137
C        -4.77665206174314    2.62122253021580    2.66790167204322
C        -5.44485940721754    3.69867524383513    2.08628757723960
C        -5.45078469592282    3.87264157610335    0.71797997261948
O        -3.09218292340021   -0.97303536644819    0.67170760205849
H        -2.14446092517005   -1.92972267289675   -2.53687215476929
H        -1.82873253673638   -3.67157266590949   -4.23011967314217
H         0.06361499135158   -5.25022389457588   -4.05308508247790
H         1.61392632293178   -5.08534055514927   -2.13826368575238
H         1.29890221920796   -3.34585103760474   -0.44264525122061
H        -1.03020971999790   -1.85669680346477    0.54781793710561
H         1.58147220727155   -1.17677756517940   -0.42143749862493
H         2.59446865083924   -1.74440982176910    1.60326891529946
H         2.88151939597692   -1.42822639766031    4.02485763248321
H         1.33829820393998    0.03795217653156    5.27249144052303
H        -0.50446540383361    1.17382711891665    4.08568588008766
H        -0.78368936523726    0.87189525235649    1.66799851145825
H         2.00929789743506    3.02044811063122    1.94049748734834
H         3.01760873797297   -0.05400116570484   -1.89695834598686
H         5.04229097250797   -1.45915552852888   -2.05318287397616
H         6.72589200945970   -1.43102608562043   -0.26540728059418
H         6.43439868978334    0.02845018973370    1.71028687198925
H        -1.15057143751796    1.65971429178358   -1.36930959756459
H         0.83893425983099   -0.22476141802356   -4.14917371653712
H        -3.29783652438640    1.11454337143286   -2.67326575991290
H        -3.59683074033358    0.85903677823482    2.33630260389981
H        -4.79252221864243    2.50683747187214    3.74150191813538
H        -5.96580597436484    4.40478102401852    2.71517460632783
H        -5.96616539154797    4.70236798564745    0.26013852941660
