90
 energy: -136.811536371266 gnorm: 0.000208039089 xtb: 6.3.3 (4ae9cef)
C        -0.65350814180642    3.56637518479759    3.87970779629108
C        -0.34515049889995    4.70579424304847    3.19390458201742
C        -0.20532359510872    4.66245570070585    1.79965082496827
C        -0.38440876273063    3.49202726926747    1.11691317090031
C        -0.70750796161011    2.29302912463768    1.79062223797797
C        -0.83254689941222    2.33891044013725    3.20735789358768
C        -1.11621305984357    1.15839849186631    3.92418237341260
C        -1.24428250936639   -0.03418924442433    3.27292392578597
C        -1.11497338134788   -0.08833959769531    1.88012806351981
C        -0.88421769635933    1.04298681060154    1.13939779128161
C        -0.73461119348222    0.91884807654705   -0.35810375532105
C         0.70622428579546    0.49444367830785   -0.71985811651906
C         1.43833432024814    1.51030828534055   -1.56194641358738
C         1.19438471355936    1.55898582112111   -2.91178061294654
C         1.87035175387423    2.45870580303695   -3.74485590811384
C         2.79657540539949    3.31087962800685   -3.21662403018196
C         3.06699432723629    3.30896050757265   -1.83288121594099
C         2.37521523586666    2.40581723661114   -0.97863209701619
C         2.65778993279041    2.45866940847849    0.40418590464367
C         3.57571291088490    3.33710963454098    0.90704792789769
C         4.26564848441480    4.21458603472349    0.05922921961678
C         4.01240212517378    4.19955419467531   -1.28202059144578
N         0.53847231811022   -0.77541184583062   -1.40158760111032
C         1.48633895745722   -1.73928726099077   -1.46542628087242
C         2.83407899637314   -1.26532840393216   -1.02206279508492
C         3.22663969280661   -1.40413817300832    0.30983160919971
C         2.33080153678160   -2.12678548101301    1.28934625693887
C         2.28961338158477   -1.46225928690309    2.66577468694032
C         2.79598394188392   -3.58217911214062    1.39921671338113
C         4.46505783031415   -0.89718893522479    0.68268784218921
C         5.28167817928164   -0.26033856026872   -0.23434430776280
C         4.88491627744926   -0.13747056993167   -1.55411366669911
C         3.65996943077290   -0.64330213904512   -1.94781485445757
O         1.22624955748474   -2.85553577594570   -1.87196685004503
C        -0.83776407311385   -1.07055821719926   -1.72533648913501
C        -1.16629563937149   -2.54490947310733   -1.40925357245582
O        -0.94078983141239   -2.82712476494049   -0.12357342488286
O        -1.65329821122163   -3.30861575670796   -2.18930308993535
N        -1.57892125168869   -0.12675287423161   -0.92483055186115
C        -2.93292076563386   -0.00725938192373   -0.85192450446574
C        -3.70121374576399   -1.03582875582957   -1.61741130471964
C        -3.81815841332172   -0.86823742004278   -2.99138862017436
C        -4.56167876584538   -1.75870052263120   -3.74176019797532
C        -5.19663545826205   -2.81374320701267   -3.11193706701628
C        -5.09197416607931   -2.97238942135783   -1.74235352682899
C        -4.34391222493495   -2.09209617083356   -0.97185292929511
C        -4.23504483227970   -2.23310785186539    0.52753709012537
C        -5.36502632734643   -1.43871098425626    1.18950715986637
C        -4.25095846384624   -3.69033311409095    0.99129337726907
O        -3.45206010325361    0.89722326662819   -0.23091608975380
H        -0.76109095412224    3.58332786003667    4.95504906597970
H        -0.20664102351359    5.64120387744945    3.71567352131917
H         0.04723251898127    5.56500050269259    1.26279782225900
H        -0.26072365663575    3.49468621549706    0.04531514150257
H        -1.21831362329771    1.21584985281995    4.99833690705360
H        -1.44624441040736   -0.94265420383637    3.82097662989623
H        -1.20017363526592   -1.04297762981012    1.38369292345789
H        -1.00596527036876    1.86369124622902   -0.84175506707070
H         1.26892515089195    0.30905888163591    0.19844526553952
H         0.47869707627715    0.87986503092709   -3.35091405169434
H         1.65608451712918    2.46367485564918   -4.80308554596103
H         3.33301497451359    4.00336279405487   -3.84892838760181
H         2.13456337597172    1.81242689174058    1.09072300685020
H         3.77007451787766    3.36098141228040    1.96895462778956
H         4.98897347531765    4.90042988562908    0.47443299962661
H         4.52951510651389    4.87592554185868   -1.94757746684315
H         1.31174823794338   -2.13414324060942    0.88833392633357
H         1.51191892612504   -1.92097303536242    3.27182673271722
H         2.06805194327478   -0.39969163767722    2.58174571108875
H         3.23517027318385   -1.57869527023974    3.18892468556493
H         2.16802070560023   -4.12759230866435    2.10016890300829
H         3.82622083787285   -3.62748448996152    1.74589310453067
H         2.73577065399653   -4.06539892844014    0.42686496906836
H         4.79702331285405   -0.99469866822917    1.70463761594741
H         6.23432413962150    0.13746963580866    0.08250496844988
H         5.52233850995895    0.35374996071870   -2.27322161611566
H         3.33721508456643   -0.55599700221817   -2.97459767079159
H        -1.03360523476579   -0.93945000627557   -2.80547954946154
H        -1.12020486860628   -3.76542833841494    0.04759095752915
H        -3.33215995125325   -0.02818013817468   -3.46857775302083
H        -4.64431167667255   -1.62940842646172   -4.81027261649708
H        -5.77853319799289   -3.51643813165729   -3.68968875029334
H        -5.60098625386707   -3.79773102532973   -1.26987798673787
H        -3.28833915473557   -1.78171228327490    0.84268586240930
H        -5.27259656158115   -0.38525109141291    0.93764005421686
H        -5.31442457554271   -1.54348826702416    2.27118656646329
H        -6.33324016261969   -1.79802018763700    0.84698106463982
H        -3.91856608314247   -3.75367508249353    2.02544597044442
H        -3.59420899838180   -4.30050251612258    0.37396053049578
H        -5.25459566794120   -4.10506107397750    0.93860094569189
