62
 energy: -107.651280533737 gnorm: 0.000409360177 xtb: 6.3.3 (4ae9cef)
C        -2.26721084502402   -0.85459937131999   -1.66367017566166
C        -3.45327830680517   -1.40776183107716   -2.11048560632532
C        -4.31164160706599   -2.02644178178089   -1.21730505038726
C        -3.97484444649606   -2.09911043591680    0.12338501568022
C        -2.78833524652671   -1.54632813931401    0.57083536791169
C        -1.93112506906002   -0.91090191802995   -0.31724605074742
C        -0.64856087325293   -0.30386668006617    0.18282601729542
C         0.59935107362248   -1.12303944919447   -0.22076822904590
C         0.98331281092259   -2.09958304378353    0.85611205959798
C         0.70886139565463   -3.45036985607029    0.70538348707303
C         1.02041435313975   -4.34148005592498    1.71695488121357
C         1.60902359431219   -3.88937192505070    2.88502377742664
C         1.88266425753865   -2.54103836730512    3.04126210436956
C         1.56477736163078   -1.64889231006151    2.03436817444325
N         1.61192453267051   -0.09163884718802   -0.42928267180447
C         2.90628944745292   -0.45061343505096   -0.70586393137944
C         3.85585945974115    0.68266551127724   -0.90516207333585
C         4.73095275491262    0.63871467897349   -1.98544050832106
C         5.65055658616339    1.64949438286176   -2.17686105271952
C         5.71632872173869    2.70505049678104   -1.26634086535019
C         6.65801936243087    3.74367620730835   -1.45476046504871
N         7.42020515523876    4.58597337774310   -1.60739161223133
C         4.86261227965207    2.73545974223739   -0.16289645940163
C         3.93617089005104    1.72709288975482    0.01193649467595
O         3.26114835747442   -1.60759879175564   -0.70862982342707
C         0.95615329941542    1.09278850498253   -0.91805880268594
C         0.95354019994595    1.12127118429495   -2.46341921090463
O        -0.17689361315573    1.59567882864299   -2.96543794720212
O         1.88738825149339    0.76013894157660   -3.12290081418008
N        -0.37004756975429    1.01894818580983   -0.35850993284698
C        -1.11303302900989    2.14088815285687   -0.17352235435833
C        -2.46280911088646    1.86705184786056    0.41595017859997
C        -2.62142729591406    1.68373670765867    1.78434974204177
C        -3.86461046880231    1.37872396910708    2.30252941620655
C        -4.95872952971458    1.25786383603907    1.44622369479886
C        -6.22390104991364    0.90140864897950    1.96878982627176
N        -7.24449665573931    0.59948049075637    2.39367572767180
C        -4.80879751857738    1.48288364007632    0.07781224278451
C        -3.56382568537516    1.79278637110932   -0.42980584496617
O        -0.71381096076884    3.23982446480050   -0.49031661095562
H        -1.60705334884855   -0.35916638759418   -2.35931797506088
H        -3.70939505728124   -1.35477762412432   -3.15814625631812
H        -5.24020599499465   -2.45255993155980   -1.56542397817395
H        -4.63936962307268   -2.58239918800832    0.82339075089459
H        -2.52572297692605   -1.60446193488352    1.61730484673285
H        -0.68774376001009   -0.24366292543228    1.27950359724288
H         0.41114401965568   -1.66242499178843   -1.16039785476954
H         0.25494560382122   -3.80474345620433   -0.20839739872580
H         0.80750734407279   -5.39227869702527    1.58982248142366
H         1.85788738735295   -4.58595651277298    3.67145924681228
H         2.34519641188459   -2.18381505756635    3.94946436243741
H         1.78274355658701   -0.59717423265803    2.15568780433188
H         4.66789347369664   -0.18799808111303   -2.67470720963002
H         6.32345351299909    1.62972602835083   -3.02100511887678
H         4.93364225642915    3.54695345045376    0.54624689227892
H         3.28944450627137    1.73890162539467    0.87759725388245
H         1.44877332705161    2.02561095789169   -0.60296137729837
H        -0.12365460981385    1.67983538066765   -3.93254575217396
H        -1.77198987231899    1.78104803229755    2.44460142898744
H        -3.99632074502445    1.22575385149180    3.36340387212413
H        -5.66585831696229    1.40729381715190   -0.57414758666088
H        -3.43349235792624    1.96733005443301   -1.48660814423951
