19
 energy: -28.373615872300 gnorm: 0.000969435908 xtb: 6.3.3 (4ae9cef)
C         3.21194487238067   -0.33929093660328   -0.45975197886245
C         2.22417112584278    0.17497696427227    0.24683574126002
C         1.15644832795948   -0.63093104587412    0.92654663353986
C        -0.19638105023819   -0.22497233759243    0.40633863642219
C        -0.65054788729021   -0.71466958925360   -0.81198785575096
C        -1.87450576712849   -0.32643681990645   -1.32365721427623
C        -2.65479201472511    0.56815681948155   -0.60944348499342
Cl       -4.19097107318838    1.05691357498270   -1.23932377497271
C        -2.22067499919889    1.07179409867218    0.60479737998305
C        -0.99319810530656    0.67318149723104    1.10312949757253
H         3.95505933254685    0.27861823434872   -0.93368118684916
H         3.32595300259154   -1.40376748944266   -0.58562510939351
H         2.13018756325242    1.24689960015637    0.36078913524720
H         1.20264451275327   -0.44918309319658    2.00350594819434
H         1.32689062384386   -1.69324655064918    0.74331898131328
H        -0.03736866505928   -1.40771606528593   -1.36830047035892
H        -2.22291525386894   -0.71364464731633   -2.26815416549105
H        -2.83675218927293    1.76604412456451    1.15430653846728
H        -0.65519035589387    1.06727466141126    2.05035574894868
