88
 energy: -146.749731883816 gnorm: 0.000765554023 xtb: 6.3.3 (4ae9cef)
C        -1.41417629982658   -3.46115902773112   -1.11656437617842
O        -1.17074126017020   -2.59618527122357   -2.14596527886911
C        -1.36041640816893   -3.04242913630534   -3.46565606140897
C        -1.77839174506054   -4.79069876926210   -1.28680973761746
C        -1.98472714676543   -5.60506484488518   -0.18590431580540
C        -1.83152918273989   -5.10450429539065    1.09193894379199
C        -1.47817851988885   -3.77727847965159    1.26467609355137
C        -1.26779513887682   -2.94497734851343    0.17970349643073
C        -0.87443672896152   -1.50658610936562    0.40072447439840
C         0.55272698646547   -1.19542465633950   -0.09782545372994
C         1.46935098003001   -0.85609849133299    1.04987008443417
C         1.27546326962823    0.30699468391537    1.77753886550473
C         2.11201625533040    0.63082771635567    2.83071950130122
C         3.14878937727707   -0.22085887336422    3.16045083456419
C         3.34728943198323   -1.39629420380167    2.45582985033427
C         2.50769995187663   -1.72994329203641    1.40004739507220
O         2.62181159750729   -2.86591424102457    0.65140628988216
C         3.62804868053742   -3.79151642303222    0.98243241024795
N         0.37327742324898   -0.07423529655228   -1.00083262101916
C         1.30866612440333    0.82279099142159   -1.37021977585138
C         2.70695859542065    0.40905541755413   -1.14284197031880
C         3.71166176773325    1.01082439195488   -0.41374791104198
C         3.73396240582703    2.16069957253151    0.47002902130836
C         4.78594053864922    2.30295126462771    1.37765902842651
C         4.81460604665023    3.36670765312851    2.25668490306326
C         3.79636855539154    4.30595825665113    2.24650101550347
C         2.75710816607385    4.18037936226290    1.33908405132952
C         2.72267102776208    3.12149920491812    0.45220707835073
O         4.83662664072219    0.26212075665129   -0.50942170406439
C         4.57930644823506   -0.79301256855458   -1.30743864758009
C         5.68549365785584   -1.73956127363011   -1.60957071824101
C         3.28174026792903   -0.75694831969307   -1.71843992984616
O         0.97986157252406    1.86876401047811   -1.91143368294471
C        -1.01408785910456    0.20473226468319   -1.29549187098897
C        -1.29011569122124    1.72272364245152   -1.22051437609736
O        -1.00102939142564    2.20787214145645   -0.00962372268843
O        -1.80596974287325    2.35699028930915   -2.09584600955618
N        -1.72900135648867   -0.57130954103116   -0.31690066067297
C        -3.04952183763344   -0.50720033612663   -0.01788453859125
C        -3.81543923221946    0.44580158566195   -0.85412695811728
C        -4.28190543886009    1.70585514010208   -0.54663324012820
C        -4.11436141360832    2.54786201010355    0.62102108080694
C        -3.57256074954685    2.05508964673417    1.80978796633015
C        -3.38757263376957    2.89595643570480    2.89054576256661
C        -3.74016171976591    4.23373504256145    2.80991544006738
C        -4.28702922543055    4.72910228134146    1.63670801676799
C        -4.47207040881058    3.89702325373532    0.55031735756181
O        -4.92575558148604    2.21596049698184   -1.62244261990451
C        -4.88744618340886    1.30535209931717   -2.60950025367761
C        -5.51845679079871    1.64645403605837   -3.91008006782308
C        -4.21653692347208    0.19418428350676   -2.19141882164390
O        -3.54033178829449   -1.20186584023682    0.85098124379414
H        -2.39377750768689   -3.35896074211448   -3.64043401082750
H        -0.68207754572099   -3.86487301066590   -3.71597132518496
H        -1.13374388694979   -2.18731709798748   -4.10223749332687
H        -1.90545441090386   -5.20374645338381   -2.27508987955672
H        -2.26934244895237   -6.63561155006877   -0.33803129492204
H        -1.99442211681623   -5.73803717349247    1.94988041970690
H        -1.37165667153773   -3.37324793712928    2.25987714630763
H        -0.96228496236895   -1.29371926912560    1.47381788547924
H         0.95548366283856   -2.05687457915071   -0.63998902373541
H         0.47019095571945    0.97197382112273    1.50280113559699
H         1.95973362351680    1.54545103369242    3.38138212501062
H         3.81484889692224    0.02529765980897    3.97353152164621
H         4.16197740024488   -2.04480935980865    2.73655820586175
H         3.51370957136774   -4.61216679966891    0.27568273487657
H         4.62652342709990   -3.35694650598214    0.87458902059512
H         3.50239146973526   -4.17365611055060    2.00035254663373
H         5.57397939204297    1.56566573551131    1.38997243356692
H         5.63318905881615    3.46419814840154    2.95510605208250
H         3.81722144762902    5.13551197210079    2.93764170617986
H         1.96909205918876    4.91872970478956    1.31906809968429
H         1.92547788523633    3.04736983333307   -0.26737319730742
H         5.27951661018079   -2.70365847756333   -1.90192875921539
H         6.30020031756111   -1.35898106224031   -2.42599924539735
H         6.32471370132844   -1.85858459602459   -0.73725595126224
H         2.78976770708338   -1.45750989251517   -2.36122127474961
H        -1.26110656876489   -0.10883925417142   -2.32440970611894
H        -1.18220821799820    3.16036490801394    0.02066099926508
H        -3.31387898806622    1.01273474775642    1.89074026804280
H        -2.96946996095754    2.50310798776949    3.80567982549215
H        -3.59495805845358    4.88579297434225    3.65868991603285
H        -4.56875424989776    5.76993614677718    1.56872970115673
H        -4.88999872151763    4.28086532869289   -0.36750260909796
H        -6.51623171045834    2.05159643275967   -3.75102931264989
H        -4.92377246632086    2.40193457007421   -4.42324461465743
H        -5.58196228865373    0.76117164777189   -4.53521398481478
H        -4.03061477490399   -0.69936307412297   -2.75147494138075
