68
 energy: -119.700289658859 gnorm: 0.000418820341 xtb: 6.3.3 (4ae9cef)
C        -1.30054155212493   -2.60746509702882   -1.72544527107265
O        -2.02313096828612   -2.85373899069934   -0.60372008842366
C        -3.16745452943108   -3.66598456505880   -0.68661545086936
C        -1.66105281287812   -3.02559408476759   -3.00050929645643
C        -0.85642435004728   -2.72118490530158   -4.08514358528518
C         0.31248777120118   -2.00817224624552   -3.90797982097184
C         0.67706829259438   -1.59061254401424   -2.63824409650939
C        -0.11390672355045   -1.87567421362227   -1.53955170164305
C         0.20806926994849   -1.43274220685073   -0.13077955228480
C         1.57126499425170   -0.75482675652993    0.05474578255245
C         2.02980021145753   -0.86915084967710    1.48879424437244
C         2.02530108723974    0.19080063154056    2.37493265721237
C         2.42584591463915    0.02261779481998    3.69132851443407
C         2.83699213896473   -1.22191762929201    4.12380049481607
C         2.85752020900540   -2.29721130625310    3.25043287578033
C         2.45560864271120   -2.13248822647883    1.93190515394056
O         2.43564739040866   -3.11924220374627    0.99537590994152
C         2.83929765819023   -4.41486037746228    1.36804359216097
N         1.26843434501339    0.61442420632915   -0.33425334614284
C         2.13035701795789    1.37515584351453   -1.04730186308092
C         1.62352246741388    2.74843154837568   -1.36720877405599
C         1.44494601485452    3.16807073636609   -2.67775738401103
I         1.78402056935054    1.83662822913845   -4.27883808512163
C         1.01258527584885    4.45241857545944   -2.95934860096143
C         0.77759829830461    5.33770489957946   -1.92292939520077
C         0.98340237877589    4.94474491476106   -0.61114615096779
C         1.40655093957965    3.65826424209643   -0.33729392304795
O         3.23278368907280    0.99020083263589   -1.37208034285828
C        -0.11680655539902    0.92376044109632   -0.05401281665991
C        -0.86833601476897    1.56730891026462   -1.23682442165756
O        -0.75986890638169    0.87737513562207   -2.35447828948100
O        -1.52394428498671    2.56826044956496   -1.11111602759822
N        -0.68867402955081   -0.35683337941244    0.30120565755435
C        -1.54804489423610   -0.52767739054018    1.34531555727653
C        -2.28953530198821    0.72359844935112    1.71425788328356
C        -1.91588683408657    1.42511777808622    2.85500955409213
C        -2.58765727200107    2.57863929170518    3.21797593980557
C        -3.64539193895198    3.03293125403910    2.44793054936267
C        -4.04149188605013    2.33176259990872    1.32253907915275
C        -3.36061012626243    1.18308084765926    0.96429009815743
I        -3.99369142760770    0.10541106578187   -0.73509543498448
O        -1.71949203433621   -1.58101160281841    1.91099087622182
H        -3.94014964263891   -3.21187728910931   -1.31557946099090
H        -2.92418442823992   -4.66394025368091   -1.06534657427096
H        -3.53584621262753   -3.74322198173616    0.33490526302756
H        -2.57077363098089   -3.58315220306519   -3.15580192066708
H        -1.15128137128311   -3.04785241130096   -5.07117389976811
H         0.94210986367871   -1.76644752620636   -4.75004486227755
H         1.59263860690003   -1.03348254590254   -2.52803448707972
H         0.05238572012304   -2.27182687608777    0.55291066855632
H         2.34566503683054   -1.16292906100423   -0.59777377094879
H         1.71969967065346    1.16974836229935    2.03667791325369
H         2.41596969519730    0.86174938127475    4.37018672058409
H         3.14896997981066   -1.36576002336149    5.14726876782319
H         3.18745543411602   -3.25903201437838    3.60894908757287
H         3.88373422700866   -4.43353511615909    1.69411757264594
H         2.20151249572743   -4.82129204641006    2.15879429615504
H         2.73115426362451   -5.02140483259731    0.47053031125248
H         0.86285162555387    4.76003360138867   -3.98298210403141
H         0.43775666324154    6.33767984127083   -2.14427568398362
H         0.81250526740208    5.63858644451017    0.19725121427547
H         1.58536120034800    3.35227016760337    0.68338433015822
H        -0.22449382417452    1.63519447716427    0.78262270637466
H        -1.30727366393750    1.24374192376718   -3.06963886159860
H        -1.09307215327989    1.05283292448044    3.44885521425338
H        -2.28673758394371    3.12094544161713    4.10138044630196
H        -4.17159328483154    3.93381057173807    2.72450105066639
H        -4.87152808812877    2.67884194196959    0.72711136192737
