80
 energy: -136.153784484698 gnorm: 0.000646369215 xtb: 6.3.3 (4ae9cef)
C         1.32813143431752   -3.98491858356721    0.78062825897299
O         1.60627255193562   -4.20339540198787   -0.53384188167332
C         1.93461119891048   -5.50488610997867   -0.94798769430929
C         1.33755929231791   -4.96376038849406    1.76586861209889
C         1.02265787297770   -4.63678176096906    3.07493576536524
C         0.69150775959897   -3.33992171511828    3.41450695406744
C         0.68077975498989   -2.36053791778562    2.43492818307861
C         1.00504547602222   -2.66463489503432    1.12671653440433
C         0.96970293166872   -1.63397224393752    0.02915534025579
C        -0.40938671520269   -1.60846104652332   -0.65107000668331
C        -0.37568468857995   -2.10329382545227   -2.07295227078503
C         0.19779066735646   -1.35940206548000   -3.08826158040768
C         0.22184960388466   -1.83158505723910   -4.39019535738222
C        -0.33106596557255   -3.06373520466118   -4.67622078903122
C        -0.89732554027137   -3.82951027412562   -3.67056560095136
C        -0.92173610912717   -3.36324269303884   -2.36203837080382
O        -1.43425404526539   -4.06204072806670   -1.31085203567264
C        -2.08036028377726   -5.28347343378974   -1.56456119512647
N        -0.86366152573731   -0.22534164773278   -0.51370335271233
C        -2.18376473950429    0.00557159053733   -0.74430561782015
C        -2.79829976556372    1.29650988264458   -0.38631567598516
C        -4.10016626802584    1.67571556061486   -0.58185980827667
C        -5.19542009900636    0.94471004226037   -1.26304199985828
C        -4.23041062176071    2.97534186932780    0.01250125894101
C        -5.27788148092522    3.88355519251829    0.15416718612509
C        -5.02629218646446    5.06633251250420    0.81444174893728
C        -3.76338719839060    5.35755194961679    1.33368388788795
C        -2.70951740119926    4.47422902567099    1.20594351207143
C        -2.96789325454676    3.28903627539842    0.53923490445150
O        -2.09313261499907    2.27709815447462    0.29429780779561
O        -2.87563135467210   -0.87894425915388   -1.22547494548794
C         0.15959806946439    0.62656944910038    0.04583667473794
C         0.77052117885606    1.55900063089745   -1.05223061327924
O         0.08226842142307    2.66013687158832   -1.31870604045179
O         1.77737047504594    1.27260960884698   -1.63025347847354
N         1.16944265237964   -0.27970460927961    0.52107848063639
C         2.41744063503963    0.04873470303164    0.96713238061459
C         2.70356021627135    1.46072604295343    1.25547311066365
C         3.91166736962672    2.02048162149526    1.58022953851833
C         5.21704749170319    1.35004365096260    1.79488765629082
C         3.67696338802710    3.43118196367735    1.67033280079487
C         2.31170727865087    3.61142888676427    1.38418807176120
C         1.71885727174104    4.86345884993280    1.36391703501325
C         2.52954854795581    5.94502717353425    1.64418089849449
C         3.88582744111760    5.78448530148089    1.93580377252470
C         4.47436473997832    4.53932300114593    1.95130639049372
O         1.72003550569422    2.41915691259956    1.14391495423868
O         3.25607024662608   -0.81849315639516    1.14151023068197
H         2.85011921136951   -5.86369583733219   -0.46652953624550
H         1.11906370999519   -6.20800936107911   -0.74776821596906
H         2.09614039343996   -5.43632037561279   -2.02321739259286
H         1.59075981211875   -5.98471893696639    1.52656804271860
H         1.03672198534833   -5.40884481449676    3.83024000680328
H         0.44387674384466   -3.08891934425537    4.43467375860974
H         0.42733481389787   -1.34259530356925    2.69321258625375
H         1.75717478265707   -1.87420023836322   -0.69562122615779
H        -1.11932193329150   -2.24103106753733   -0.10485407867288
H         0.64114702831275   -0.40215092568562   -2.86450590597418
H         0.67139781663549   -1.23753249881108   -5.17074440513436
H        -0.32267528159714   -3.44313623230126   -5.68760434654866
H        -1.31800759277586   -4.79087531031956   -3.92065719308420
H        -2.43484778992872   -5.63406231835234   -0.59589089481984
H        -1.39371600868807   -6.02537896127600   -1.98702973035153
H        -2.93475153890187   -5.15468640514265   -2.23652609020067
H        -4.85228561844346   -0.03517544344065   -1.57733400136418
H        -6.04278438063129    0.83602031268628   -0.58718888319540
H        -5.52899005493059    1.51084100398733   -2.13225597017738
H        -6.25560623677563    3.65974914182196   -0.24250120752380
H        -5.82009938946804    5.78719701198757    0.93866856824677
H        -3.60805289547091    6.29359289937509    1.84771762022317
H        -1.73394056213515    4.68783210690770    1.61252372841124
H        -0.23874347124609    1.23417658634687    0.87079784328130
H        -0.69830592506985    2.75329304937037   -0.73974559655030
H         5.11804043144102    0.28276631147169    1.62688024968328
H         5.95901157500093    1.76174254748120    1.11181240245365
H         5.56177891162845    1.52631585408589    2.81342800965225
H         0.67436815790033    4.98329064743362    1.12404080132116
H         2.10756605508132    6.93866935057840    1.63408506721709
H         4.48102967003630    6.65999627715671    2.14800078858158
H         5.52366896569929    4.41786756807820    2.17096256635476
