72
 energy: -133.997074743104 gnorm: 0.000688094014 xtb: 6.3.3 (4ae9cef)
C         1.68109160921769   -1.80893145164658    2.03426730381683
O         1.20114702531269   -0.53707160263033    2.21828320697235
C         1.29055728389984    0.03189235037700    3.50074967985715
C         2.33636448665393   -2.53745966709788    3.01774793171317
C         2.79767362856968   -3.81560330069862    2.75026594913536
C         2.61204308758611   -4.37814521814887    1.50311215668487
C         1.96003324403259   -3.65352753634006    0.52038917338814
C         1.48826353407850   -2.37610307618473    0.76618962782948
C         0.74449040300609   -1.63070455586952   -0.31381641488890
C        -0.74372107935660   -1.46007623399170    0.02641418807806
C        -1.69169941111268   -2.07009549353193   -0.97725580643483
C        -1.53932629236518   -1.85423156898032   -2.33649221173068
C        -2.45987163494719   -2.34828115764692   -3.24353304568967
C        -3.54970984688738   -3.06230806330256   -2.78469783280157
C        -3.70961773641957   -3.30580225252988   -1.43228687232360
C        -2.78119219463418   -2.82425533774202   -0.51530227203244
O        -2.83770129114073   -3.06357210192068    0.82150301812754
C        -4.02886932440517   -3.57928285096723    1.36274757691177
N        -0.93311039987435   -0.01108391712840    0.10493482481305
C        -2.00713345480713    0.51037655769241    0.74710112772281
C        -2.05383397043399    2.01842207772951    0.69020617616391
C        -2.55727389436537    2.69910292878171   -0.41720627581042
N        -3.07411680389443    1.96402226824764   -1.54470350006180
O        -3.39243629024601    0.80993510545446   -1.37491084742370
O        -3.15004294301539    2.55687286970648   -2.60215902204226
C        -2.57617155529714    4.08796540771994   -0.46287748470808
C        -2.10428729013094    4.81097043648155    0.61468188164447
C        -1.62380290738223    4.14692027206378    1.73341677627134
C        -1.59936061071418    2.76294835761161    1.77032004369536
O        -2.82774277139189   -0.13651825106723    1.35122755988921
C         0.23702815444867    0.73727718081114   -0.26544395047377
C         0.05836369155053    1.61384772556734   -1.53148313324028
O        -0.64253684563547    1.02699490682663   -2.47205794052847
O         0.50821173642411    2.72988604375700   -1.59794623597228
N         1.24379505909340   -0.27083085373131   -0.47201606331488
C         2.54494050171122   -0.05261085579118   -0.75073278801662
C         3.01224422795020    1.37762071332989   -0.67442779753700
C         3.33399888260478    1.91765581605566    0.56290975605603
C         3.90963543107237    3.17451797543588    0.65166416119261
C         4.19261653000820    3.90327219234165   -0.49408225599131
C         3.88813084750064    3.37857298157786   -1.73470829969856
C         3.29823587183155    2.12417400995743   -1.81515294886266
N         2.91706645538246    1.61715672343044   -3.10178584741871
O         3.43469313602889    2.09705573624580   -4.08312537720659
O         2.06110342989647    0.75233023091726   -3.12381308372426
O         3.33993510346605   -0.94263738487997   -0.96375667123603
H         2.33056551891921    0.14105725187747    3.82723255697157
H         0.83854864685969    1.02033271133232    3.41908614018866
H         0.73835560093343   -0.55530814908454    4.24079426287128
H         2.49455308259723   -2.12074696369733    3.99983657138391
H         3.30592114540661   -4.36573447115738    3.52793476863223
H         2.97415119029957   -5.37227099261175    1.29310613628619
H         1.81441281794855   -4.08278251585483   -0.45884682301252
H         0.87599009151668   -2.16809626800471   -1.25891269157797
H        -0.97699807834433   -1.88163117385463    1.00989659022666
H        -0.69775703889144   -1.28232729546995   -2.69337823584261
H        -2.33012833073280   -2.16590497126520   -4.29900491705494
H        -4.28475672714115   -3.43959728279802   -3.48038785886756
H        -4.56487027000234   -3.87187598383820   -1.09884267343217
H        -3.89538748869462   -3.55099992557111    2.44290066622427
H        -4.88774575654738   -2.96011232794420    1.09006741722419
H        -4.20278195944605   -4.61422052179531    1.04718776875278
H        -2.96821078988255    4.57479483574766   -1.34268780957250
H        -2.11737523515091    5.88895569043017    0.58672977017911
H        -1.26537966258790    4.71083590301942    2.58118001037293
H        -1.23129772086942    2.24500440385884    2.64321721865522
H         0.53871298268199    1.43544295019623    0.53715974676106
H        -0.70740511438859    1.55499291811973   -3.28720702583876
H         3.13623341881750    1.34109078967352    1.45351243038993
H         4.14590506867009    3.58606148885683    1.62158276682370
H         4.64522245522650    4.87961550117915   -0.41860437529942
H         4.08342133993908    3.92276726237039   -2.64591055223748
