76
 energy: -138.721577396685 gnorm: 0.000832763771 xtb: 6.3.3 (4ae9cef)
C        -2.89171173332124   -0.44113096056628    2.58187815327354
C        -3.54827343611400   -1.50150178515292    3.13785095691518
C        -2.94218185436349   -2.77262297277703    3.21231533495235
C        -3.59335694558330   -3.89044945724722    3.77346522702668
C        -2.97070160460025   -5.10605161712818    3.82490115842069
C        -1.66911912136414   -5.26013193277248    3.32099763964004
C        -1.01090794419286   -4.19632369658785    2.77150743238663
C        -1.62801040930381   -2.92981268996554    2.70121230179176
C        -0.97802528414265   -1.81761812785689    2.13060225012792
C        -1.58943034535425   -0.59185040228191    2.06678062582920
C        -0.92931989767455    0.59302193757872    1.39825855825726
C         0.59802693910071    0.67723123967004    1.60841592358844
C         1.10319035139526    2.09023290718002    1.78602462351217
C         2.15964513968762    2.57294493740276    1.06083194242115
C         2.60587114467400    3.90168438428814    1.21588598656883
C         3.67035503223923    4.42263069790471    0.45129442164084
C         4.07543413506456    5.71787426095178    0.61499438376067
C         3.43711391381811    6.54878829924565    1.54940279048400
C         2.40331579255825    6.07159260761358    2.30605164091179
C         1.96102314865586    4.74087093434385    2.16040022410887
C         0.90682007457559    4.20483563735861    2.92952398098215
C         0.49036467385505    2.91768584015409    2.74909975647458
N         1.10888305354867    0.03529835234542    0.40577062852125
C         2.06601371877911   -0.93256772613832    0.44213080319716
C         2.17307337479309   -1.77048471063168   -0.79736938571023
C         3.31115630494087   -1.75043483132206   -1.59461742224336
C         3.40371063921160   -2.57877206144069   -2.70314301745253
C         2.36838492207210   -3.43794975558864   -3.02525891859453
C         1.23767547112453   -3.45600766262430   -2.22133492735702
N         0.12884969152530   -4.32225688150404   -2.54785640540114
O         0.33782482832455   -5.24896619912174   -3.29176673169842
O        -0.93776902284155   -4.06570203821541   -2.02938668521331
C         1.13255235715221   -2.63773890558458   -1.10742461811724
O         2.74866184379758   -1.12057500326291    1.42362071175722
C         0.22722671440804    0.33868496043544   -0.68848503177007
C         0.68792678521003    1.63756424129964   -1.39099982037946
O        -0.07353484006827    2.68440722354462   -1.10235862186299
O         1.63185022865365    1.66930620674957   -2.12971164663524
N        -1.06285714029184    0.46622894688422   -0.05884309765826
C        -2.23297846578475    0.76595075682481   -0.67582323747515
C        -2.20992922695068    0.65224056486903   -2.17204877864754
C        -1.77960381188282   -0.49508047583693   -2.82283568504822
C        -1.75432780008953   -0.51069764889791   -4.21072519005880
N        -1.18753369942957   -1.65090629986512   -4.88556664324139
O        -0.42453223049240   -2.34300546703056   -4.24032451972917
O        -1.47045666186362   -1.82461809214178   -6.04649316367766
C        -2.20675851089479    0.56650655542021   -4.96193840274608
C        -2.68057353541286    1.68657193928719   -4.30393982152672
C        -2.67284912355903    1.73245111433356   -2.91920968142662
O        -3.22247604990016    1.11188078206012   -0.06901322300005
H        -3.37165734000341    0.52265369747514    2.51157977881907
H        -4.54889270472944   -1.37963217444098    3.52646142434504
H        -4.59501267469596   -3.76739250546926    4.15991538274333
H        -3.47537811702560   -5.95917447360688    4.25395570464844
H        -1.19344413389545   -6.22840389401784    3.37114410119798
H        -0.00782612667821   -4.30885053858703    2.38453477492455
H         0.02571930942922   -1.96327012003298    1.75798116372086
H        -1.43828508564755    1.51255308391392    1.70411373115596
H         0.91638745295390    0.08194824258033    2.47182560888133
H         2.68039223392552    1.94038650132331    0.35642056411155
H         4.15588250811971    3.77808836013226   -0.26745007645071
H         4.89105187451164    6.11194991179989    0.02687706654931
H         3.77202963957496    7.56894583089251    1.66559390139513
H         1.90977957781984    6.70659102937352    3.02767887258163
H         0.43334453889561    4.83243260181976    3.67051298740847
H        -0.30636035352626    2.51669109212901    3.35809626557547
H         4.11958492646843   -1.08135051251529   -1.34405989150526
H         4.28837894608267   -2.54973529797237   -3.31978227809741
H         2.40962433744449   -4.08333392470435   -3.88853467553389
H         0.24505779312389   -2.70241870904237   -0.49230871689145
H         0.27118453786486   -0.44867053053950   -1.44831730673200
H         0.26442952841009    3.49175952950866   -1.52379426816018
H        -1.50127089353437   -1.38932305177116   -2.28366101879824
H        -2.17449232771719    0.50977647943638   -6.03926933981364
H        -3.04707936397573    2.52843039205562   -4.87032434812703
H        -3.03088566685327    2.60612305408055   -2.39593118785396
