64
 energy: -119.532669006497 gnorm: 0.000406223387 xtb: 6.3.3 (4ae9cef)
C        -2.48522534717056   -1.99347518345043   -1.86270299401403
C        -2.89393173277302   -2.88503278192308   -2.84114481909241
C        -2.18745497069453   -4.05355601241935   -3.05998776214039
C        -1.07175532967649   -4.33516496597441   -2.28857194436503
C        -0.66342418200445   -3.44686864911868   -1.31177683007699
C        -1.36275958072644   -2.26398625577421   -1.09618238964059
C        -0.86234499023375   -1.32546990217437   -0.02008889193568
C         0.56653195174934   -0.80181485279977   -0.32909055429821
C         1.53063073912428   -1.06730822912427    0.79978430067661
C         1.36362736066670   -0.43238746772372    2.02510115202215
C         2.25729368624212   -0.65769774846083    3.05600739016660
C         3.32169302953697   -1.52531247319023    2.87397459239240
C         3.48359905478318   -2.17344553674104    1.66133164109062
C         2.59006383244962   -1.94737233460249    0.62866707825319
N         0.36624325401763    0.62260631038302   -0.55210650637369
C         1.31007834973200    1.56850189212069   -0.77849679680773
C         2.71514868925714    1.04602526523156   -0.75556941854473
C         3.23260183588281    0.37363641470553   -1.85690626301075
C         4.52470841847195   -0.12825487207475   -1.82847206357526
C         5.29891745677951    0.01379653667380   -0.69258840526461
C         4.77671641830741    0.69714560896918    0.39842510657344
N         5.56324084594552    0.81353020843348    1.60424958347696
O         5.06627261555818    1.38900902990928    2.54596169418992
O         6.66454697331324    0.30893694924522    1.60423390747407
C         3.50086673572414    1.24024382023204    0.36931189121378
O         1.02200477231501    2.72925889523883   -0.97054369665249
C        -1.02933673608120    0.97554625966357   -0.56294296737060
C        -1.58924395152692    1.10808818797061   -1.99701068902891
O        -0.72501958528333    0.70427184330045   -2.91867207481488
O        -2.69384576587137    1.50845428875070   -2.23398415969801
N        -1.65491388726579   -0.11835949725455    0.12803346795367
C        -2.80272566000968   -0.10503578661453    0.85515149371345
C        -3.48266400218292    1.22955705168828    0.93171548504053
C        -3.00759408524895    2.20439850042756    1.79518073454005
C        -3.68232457323374    3.41452835959827    1.88454173897829
N        -3.18784893626430    4.42758494768060    2.78882579928820
O        -2.15886873504737    4.19156535479939    3.38350208552410
O        -3.83239854661971    5.44698833146421    2.89568615043142
C        -4.81716481599127    3.66732218992655    1.12497251125759
C        -5.28630004342303    2.68496012084757    0.27279876497776
C        -4.62860960975135    1.46889810862191    0.18069281575717
O        -3.23118221186277   -1.09913005629420    1.39536563530448
H        -3.05807991945407   -1.09415368727655   -1.69420669403388
H        -3.77166029126146   -2.66359349651505   -3.42971425431987
H        -2.50890778813987   -4.74726962263710   -3.82199476766111
H        -0.52222927390686   -5.25139674117856   -2.44491033507429
H         0.19897044151288   -3.67187097418639   -0.70054613380574
H        -0.88601543128760   -1.85913345274185    0.93825554843958
H         0.93905064488785   -1.27139815302441   -1.24867449117857
H         0.53693774220857    0.24864888265995    2.16590162171861
H         2.12896357188278   -0.15138018853065    3.99977444174323
H         4.02485038445742   -1.69224534569603    3.67517495040466
H         4.31053468187818   -2.85215818829595    1.51582270881803
H         2.72370553179894   -2.44715844397605   -0.32032065795123
H         2.62015699793261    0.24833087549298   -2.73766281323279
H         4.92203393252164   -0.64235456328061   -2.68986255301142
H         6.29702176533222   -0.39194260419129   -0.63241517579001
H         3.13090718809884    1.78253162062165    1.22563803105952
H        -1.19295370448475    1.94151560209123   -0.06572541604090
H        -1.09482765561135    0.81211003341482   -3.81078828263071
H        -2.13576042001712    2.04049451201450    2.41158201986829
H        -5.31117630979489    4.62237027241215    1.21743128333914
H        -6.16800827009486    2.86465810333632   -0.32165653131907
H        -5.00136055935569    0.70021168931612   -0.47777929294226
