72
 energy: -121.665561583638 gnorm: 0.000906552661 xtb: 6.3.3 (4ae9cef)
C         1.99461463667710    0.40861893106149    2.39548777398838
C         2.83097176101555    0.26135026001526    3.46379760875654
C         3.63398370539690   -0.88997040255819    3.60510958607181
C         4.50345513589778   -1.07227616122800    4.69998715425904
C         5.26253849430667   -2.20385462908670    4.80836803201322
C         5.18598154962713   -3.20499998801200    3.82746261907718
C         4.35374326137896   -3.05719685730967    2.75345220810299
C         3.55974540841583   -1.90032383460229    2.61143915792231
C         2.69642915899920   -1.71562733623490    1.51321574860205
C         1.93207956968503   -0.58597381232540    1.39980468468644
C         0.96997887493582   -0.43517533644639    0.25365032627491
C        -0.48538253052059   -0.63652776611376    0.71842397093782
C        -0.94924089925217   -2.04379563181180    0.46149546601360
C        -1.37137327252251   -2.44102164682635   -0.77956750002795
C        -1.75559195313178   -3.77394626532139   -1.02496307394854
C        -2.20261002307903   -4.20435934205865   -2.29172631943634
C        -2.56075526554235   -5.50651679968461   -2.50078400191756
C        -2.48982183744174   -6.43851784541861   -1.45349643769360
C        -2.06174001314833   -6.05209435218587   -0.21432772970957
C        -1.68355472954150   -4.71651141140473    0.03368059464357
C        -1.23388168406980   -4.28312620634899    1.29819729451555
C        -0.87749100917464   -2.98221027603301    1.50734833126245
N        -1.23623881721482    0.35479481718501   -0.04257573724704
C        -2.58224412277570    0.46789665553238    0.17123605346114
C        -3.26964954225876    1.55264458397041   -0.56308137848483
C        -4.24564611158034    2.34932584019417   -0.03455194545397
O        -4.70957713442771    3.20690687470253   -0.95016116209731
C        -4.05930151401560    2.96447392709407   -2.10703786233862
C        -4.40346274221343    3.77722176241838   -3.30239932138965
C        -3.15436503145221    1.95931734662774   -1.92767397333526
O        -3.17747209149348   -0.29819268277652    0.89712016399133
C        -0.37450276084204    1.40536996043539   -0.53482024417395
C        -0.58473433248283    2.70771449456562    0.28698196986186
O        -1.15033880386401    3.73095173450731   -0.35846392931656
O        -0.28171846921069    2.77897989411732    1.44019169264034
N         0.95847743715852    0.89941212655454   -0.32817838667043
C         2.09885959916091    1.59712172176038   -0.58124488058442
C         1.86322054948814    2.97402211707231   -1.08923145188919
C         2.20851918744894    4.13378127172176   -0.45970379778027
O         1.87773922118393    5.19570560544946   -1.20608878408906
C         1.32847041081748    4.73921196361889   -2.34903063627846
C         0.86825323124977    5.72389684726320   -3.36244419968058
C         1.29157516200952    3.37615675888515   -2.33249137153663
O         3.20201982905696    1.13113220160608   -0.40851939189133
H         1.38112087635522    1.29283269660639    2.30114667841917
H         2.88582421858003    1.02941124302040    4.22183584964916
H         4.55858215319219   -0.29875332267983    5.45288205376040
H         5.92738244252889   -2.33680530652525    5.64947530633929
H         5.79229831814886   -4.09343293091241    3.92936091369569
H         4.29255271779177   -3.82482964405703    1.99504498943471
H         2.64743733451434   -2.48547719452647    0.75563112019640
H         1.21887497785646   -1.16292523507393   -0.53205078111135
H        -0.57471185907576   -0.41173384012309    1.78983023920096
H        -1.42677590575889   -1.72882211352278   -1.59150238076591
H        -2.25828659193762   -3.48407087998933   -3.09589305432670
H        -2.90188076591173   -5.82883003522642   -3.47388782121309
H        -2.77741101074400   -7.46351314936572   -1.63678989146139
H        -2.00666259542467   -6.76518632408013    0.59585333456703
H        -1.17909700096944   -5.00071160357298    2.10405819826075
H        -0.53517699784300   -2.65680327023078    2.47848811447727
H        -4.65151834048636    2.39515320261605    0.95546786843874
H        -4.27674727830984    4.83750028547723   -3.08857388717464
H        -3.76776912083556    3.49878454871457   -4.13746307333414
H        -5.44407590748009    3.61643698475056   -3.58042097384931
H        -2.53763009956979    1.52131612731185   -2.68711639652046
H        -0.55968613901561    1.59265918770911   -1.60544545457953
H        -1.39282907331885    3.52832127755322   -1.27568260358258
H         2.65792730585277    4.30893400970884    0.49625962117897
H         1.67813595688626    6.40313093878467   -3.62105543126801
H         0.04714542853200    6.32029719109672   -2.96632475544747
H         0.53709229914494    5.20686994579827   -4.25763916763068
H         0.94592316456846    2.73645709815738   -3.11937253550623
