72
 energy: -126.245379153007 gnorm: 0.000304863919 xtb: 6.3.3 (4ae9cef)
C        -3.79400314154355   -4.57043911249888    1.45779410556047
C        -2.76528174723175   -5.28006788962323    2.00693268129056
C        -1.48192805192306   -4.71814082448202    2.05581543294551
C        -1.25166412088054   -3.46008743739826    1.57320450839184
C        -2.29273412456389   -2.69020846580147    1.00787694007628
C        -3.58835045506863   -3.27452658677354    0.93898928794911
C        -4.64672475788528   -2.56124170602239    0.34057095281861
C        -4.43470506818848   -1.32417815939587   -0.19596031089704
C        -3.16431304729645   -0.73990810128614   -0.12925049059937
C        -2.11752950869114   -1.38211545518171    0.48285179287204
C        -0.76730054071243   -0.71278333795598    0.52869361021655
C        -0.01413024461242   -0.90801285861946   -0.80113266411308
C         0.91102271642614   -2.09490596829640   -0.78571613210084
C         0.55543547824134   -3.19196786048671   -1.52917941501886
C         1.33890309663267   -4.35160920534526   -1.54325450730264
C         2.49171247403008   -4.40493699837574   -0.81475959096200
C         2.89456987432228   -3.30504765010987   -0.03062766984841
C         2.09178371104059   -2.13093405674053    0.00432076638680
C         2.51838834918197   -1.06859990593571    0.83247132480906
C         3.67319373675019   -1.15122540095680    1.55982380984947
C         4.47051066703617   -2.30262504493713    1.50513900143984
C         4.08270522504567   -3.35647441161798    0.72866207804540
N         0.65988848685713    0.36998197908478   -1.01024350279763
C         1.51354579110629    0.54318631538460   -2.05957922639782
C         2.08405004862012    1.92428180488354   -2.17188081611070
C         1.82880418664825    2.68184740367989   -3.30905206034750
C         2.36683593788182    3.94961312387907   -3.43791644458240
C         3.17660114213871    4.43436738732960   -2.42591718169613
F         3.70090988068914    5.66840018631765   -2.53847360162195
C         3.47019554921385    3.68667261031791   -1.29791436943946
C         2.91741703575528    2.42429152454961   -1.17565526743883
O         1.81220412753565   -0.35556001877987   -2.81040614014607
C         0.00787434064043    1.43075424161906   -0.27750511048300
C        -0.83938214861468    2.30785723592264   -1.23984137474089
O        -0.46249299938581    3.58361642388734   -1.36667091156408
O        -1.76286257400386    1.86061511819273   -1.85001819292029
N        -0.84168968015753    0.73868264226157    0.66047114592151
C        -1.59640609338319    1.33959682748463    1.61904887514852
C        -1.62199950071968    2.83745241251012    1.50991006653264
C        -2.73230534601980    3.45054675549974    0.94046589939437
C        -2.78671336393211    4.82760037172785    0.82666877290231
C        -1.72427556696169    5.57678013237921    1.29986094177136
F        -1.76388834826477    6.91669603683642    1.18775614259019
C        -0.61899250633372    4.99078371739613    1.89238879242386
C        -0.57462600979781    3.61151987406857    1.99684595780064
O        -2.20095809368322    0.71992539309241    2.46183300533647
H        -4.78724772514470   -4.99306946464927    1.40490548339286
H        -2.92934380276709   -6.27217885663981    2.40071443287805
H        -0.66803520196797   -5.28821826321119    2.47933711923067
H        -0.24714090282661   -3.06909833588245    1.61773198909308
H        -5.62477688479069   -3.01881169158240    0.30486002988325
H        -5.23894959376710   -0.78416096611518   -0.67243340088593
H        -3.01464689500493    0.23442429643738   -0.57130662556590
H        -0.18721696892003   -1.09832041695349    1.37346674248370
H        -0.74666514045810   -1.04873557734129   -1.60820726613747
H        -0.34693048565809   -3.16285699487691   -2.12167247111524
H         1.02527672845036   -5.19368533181005   -2.14119723949197
H         3.11372873560122   -5.28816587125133   -0.82600030893475
H         1.92245137859216   -0.17284026522731    0.90281558721148
H         3.97789950179622   -0.32592022001228    2.18783126082791
H         5.38212362157636   -2.34861899600593    2.08203710215927
H         4.68242856648689   -4.25415069324612    0.68265024794521
H         1.20460013088764    2.27375116860183   -4.08831256083670
H         2.17455820308278    4.55579260079151   -4.30810448455401
H         4.12830301516624    4.08898628071082   -0.54401695286526
H         3.15911424247519    1.81195882054250   -0.31890633764120
H         0.74922965451038    2.06169371260159    0.24546049937735
H         0.28843534993549    3.83951951116909   -0.81377492373114
H        -3.55145543984069    2.84485790611329    0.58565925914483
H        -3.63544711767343    5.32109413763526    0.38195744579159
H         0.17952853944286    5.61025234861745    2.26925069837290
H         0.26887767493869    3.13702709993358    2.47781476266158
