84
 energy: -130.484685523944 gnorm: 0.000316836974 xtb: 6.3.3 (4ae9cef)
C         4.24671726680369    1.99869036099340   -2.33802104183520
C         4.87884755257512    2.57176722216405   -1.27272028587385
C         4.28228178463882    2.52582450527283   -0.00565138494370
C         3.08628978196903    1.89134946884312    0.17933944098527
C         2.40996190874819    1.27047525691710   -0.89385190990202
C         3.00327971226177    1.35051074240034   -2.18428680882313
C         2.34083735614233    0.79270214343463   -3.29664209074700
C         1.12921708308382    0.18140650196494   -3.15053339700897
C         0.55160426452568    0.07075398977386   -1.88045015608479
C         1.17438822123551    0.57897039732320   -0.76614818854890
C         0.50135116208372    0.36709931487690    0.56945475154897
C        -0.88515055011739    1.04957378332595    0.65860179097638
C        -0.94811022252713    1.99191760796963    1.84035629035073
C        -1.58259361620054    1.62661521947870    2.99831043673583
C        -1.61283139666844    2.47452233115108    4.11410668829344
C        -0.98821715082940    3.68663014034353    4.07015457242128
C        -0.31625762320733    4.10307397773494    2.90206244483537
C        -0.29729404223204    3.25400876836383    1.76164962254382
C         0.37586392434221    3.70874902540778    0.60644550334681
C         1.00885547844563    4.92054125189116    0.58803121341258
C         0.99780309417760    5.74951706414951    1.71833098490807
C         0.34269806886997    5.34920784204529    2.84789440030207
N        -1.84045326368880   -0.04395169313496    0.75164382625643
C        -3.11600984642936    0.16842074845104    0.31473105547532
C        -4.06450263240807   -0.96882889701651    0.48140727866095
C        -4.86426871322648   -1.41861324869073   -0.57289665710410
C        -4.77562771201307   -0.85056530746219   -1.96071345707713
C        -4.08040793692730   -1.81802315219049   -2.92046504224546
C        -5.76542534624161   -2.44876189170331   -0.32242841617129
C        -5.90340541065848   -3.00001113146535    0.93679514067699
C        -5.14211656039940   -2.51567649772773    1.98755523595318
C        -4.22936589712318   -1.50636014880191    1.75608820810629
O        -3.44480802183703    1.25581767299056   -0.11730082075075
C        -1.19946783095961   -1.29065281713966    1.07268133319742
C        -1.65280370130112   -2.46730291824088    0.18495562925483
O        -2.21750510097246   -3.43987939227802    0.88234590475070
O        -1.56350052127760   -2.44630598350801   -1.01393559998795
N         0.20278955615686   -1.03745154728850    0.79785146941770
C         1.00333677087277   -2.10240653360824    0.57265250661923
C         2.42402996344960   -1.79000777735936    0.25296361209934
C         3.21466340436867   -1.17912099287004    1.21878727929336
C         4.53349316650834   -0.86764312036983    0.94756641405426
C         5.06223696048543   -1.15754443441877   -0.29827867177785
C         4.28185602098173   -1.78658695015265   -1.25020735551567
C         2.96063573506539   -2.12763089045718   -0.99041958923334
C         2.15907453154052   -2.87543179265964   -2.01440469701874
C         2.31246772685650   -4.38302850556400   -1.79828449679340
O         0.54662100525116   -3.23121022167389    0.66779746178173
H         4.68601817866877    2.03811820046640   -3.32462379145770
H         5.82955389330448    3.06834736634216   -1.39850195740180
H         4.77477987319877    2.99840695503297    0.83133992051028
H         2.65426984571230    1.89063278356677    1.16768731476664
H         2.80840719797771    0.86799132899915   -4.26786730216931
H         0.61213573168833   -0.23296956630361   -4.00255680415840
H        -0.39117680483198   -0.44740212886095   -1.77983177035335
H         1.13179987504337    0.72850113769547    1.38707162778699
H        -1.12308177590829    1.60746545939495   -0.25440743140612
H        -2.08158590858648    0.67165068095942    3.06094242258924
H        -2.13078688682062    2.15395239129437    5.00583664467636
H        -0.99818591477950    4.34525723931640    4.92653913308487
H         0.39623893567182    3.09671296185715   -0.28060807255357
H         1.52215157321823    5.24419853281022   -0.30531888504908
H         1.50304478253645    6.70345031177727    1.68582629419963
H         0.31821922341853    5.98206721615830    3.72366883127266
H        -5.78952254255955   -0.65643819187457   -2.32075313486322
H        -4.24053824882911    0.09717661214579   -1.94379448064463
H        -4.63198750337613   -2.75335021515960   -2.99184038258763
H        -4.01830291632714   -1.37784105789755   -3.91285445060772
H        -3.07441238429737   -2.03879179175461   -2.57440203246367
H        -6.38162150188297   -2.80951268499988   -1.13359880759889
H        -6.61597820373351   -3.79430196154263    1.10445712818789
H        -5.26077478071283   -2.92022640658446    2.98109567819284
H        -3.65126313753829   -1.11341694390264    2.57949792309425
H        -1.33354238115741   -1.58647947348088    2.12755813651483
H        -2.43251230507341   -4.19061436825302    0.30681953942051
H         2.79488850139902   -0.96063926804558    2.19059102837353
H         5.14343894639633   -0.39495348068798    1.70236852578250
H         6.08602026281476   -0.89929550977503   -0.52443785853761
H         4.70216890294312   -2.02291347338501   -2.21712093340127
H         1.10254674611567   -2.61623656111493   -1.93832721223057
H         2.50827394680170   -2.60951529147632   -3.01455187561494
H         1.90234145437384   -4.65516844973779   -0.82938968325846
H         3.36172979777529   -4.66973334481970   -1.82911871675664
H         1.77616612314665   -4.92927649967757   -2.57031999415378
