78
 energy: -124.144788387690 gnorm: 0.000386570308 xtb: 6.3.3 (4ae9cef)
C         1.15706653061567    2.45995175911787    0.75204266839594
C         1.89003545108483    3.43735105091116    0.14179780602291
C         2.82506295807995    3.11936921659460   -0.86438811989530
C         3.61828394469686    4.10122648360784   -1.49220922406254
C         4.52050377547454    3.75473206219362   -2.45821994603338
C         4.66627436715886    2.41329968714866   -2.84529510011665
C         3.91048944698498    1.43878951234076   -2.25765641416049
C         2.97660689732248    1.76315945265596   -1.25250463973839
C         2.19827852895149    0.77999127356924   -0.61306288285276
C         1.31638647727235    1.11194149013212    0.38238435446404
C         0.46108331859253    0.05626433738382    1.03839192065509
C        -0.70862340918716   -0.32967672362532    0.08846337995850
C        -2.04052427626216    0.05516470084435    0.69581918464446
C        -2.50249720058222    1.33409212097296    0.51140783279770
C        -3.71363129129844    1.76145322167165    1.08983865168159
C        -4.20590253763500    3.07227191905195    0.91618879154566
C        -5.38693171512534    3.45355996079960    1.48750872552900
C        -6.12994695526182    2.54373237810388    2.25716302630488
C        -5.67944700434569    1.26719055199090    2.44367319072023
C        -4.46376796179102    0.84172734267896    1.86882199014006
C        -3.96544273061972   -0.46634984447095    2.03947796918779
C        -2.78226131203349   -0.85227632580891    1.47525488371643
N        -0.51127870310645   -1.73765006015618   -0.16798213869796
C        -1.06305779311943   -2.48923033193722   -1.16414753813848
C        -2.19293653286621   -1.82756166612795   -1.93480377130617
C        -3.12181187014139   -2.88051444411598   -2.47281845176695
C        -3.13146482149129   -3.22013181218265   -3.81696680087992
C        -3.97926731762134   -4.20993767541963   -4.28367832200064
C        -4.82109223338232   -4.87214619181841   -3.40799943388136
C        -4.81089861537868   -4.54251198478783   -2.06280135892267
C        -3.96599710082819   -3.55225257729542   -1.59754207568814
O        -0.64075540986775   -3.59897518883734   -1.39832652607608
C         0.55217273622931   -2.31391386247975    0.60947639903418
C        -0.00900326193888   -3.39207687544771    1.59523589503906
O         0.90237157192956   -4.09725448761282    2.22380665623102
O        -1.18673808474463   -3.55469669045939    1.73680281444305
N         1.17513923272095   -1.18565506756837    1.28125654154980
C         2.34684564399935   -1.34154775073238    1.92624310954262
C         2.95966506433395   -0.14774432866217    2.61622751321511
C         4.03537799423210    0.52884826370626    1.79568324580435
C         4.23168121163445    1.89789883085223    1.91666820822082
C         5.23092495506136    2.52994318045418    1.19883571675096
C         6.04596782492712    1.80018961289917    0.35210416149686
C         5.86476875813418    0.43288137972218    0.23780184937971
C         4.86985068863839   -0.20118271694714    0.96003525101412
O         2.88418726683810   -2.44613371826600    1.97358100775936
H         0.44548177504646    2.71093072464602    1.52624661611643
H         1.76769837041924    4.47139737341030    0.43003329490886
H         3.50134767218187    5.13278156346308   -1.19233647790617
H         5.12846587816279    4.51099750786306   -2.93249394038874
H         5.38368534342150    2.15898759953477   -3.61137100612857
H         4.02070725970668    0.40451332855694   -2.54893195953414
H         2.31810646262457   -0.25061014993266   -0.91660712859623
H         0.05087554207399    0.43687445388924    1.98380813996474
H        -0.59135872774709    0.22411175546633   -0.85519162503745
H        -1.93621052575820    2.03542655669945   -0.08749033236906
H        -3.63044543617393    3.76779917362134    0.32167301210045
H        -5.75923385843504    4.45826774113005    1.35094941276724
H        -7.06172456816675    2.86355562556020    2.69986040901816
H        -6.24719549582028    0.56299019025800    3.03458433961585
H        -4.53611836499319   -1.16767696138772    2.63017101062671
H        -2.41489632595662   -1.85738842618445    1.60988089822021
H        -2.73813608148198   -1.14459443528628   -1.28266057593562
H        -1.74910331933439   -1.25385907738319   -2.75344364273408
H        -2.47017108066603   -2.71107951932781   -4.50405097992913
H        -3.97849596589859   -4.46702602840318   -5.33306710227586
H        -5.48036494909812   -5.64678204186119   -3.77146540005108
H        -5.46069676134594   -5.06207254155797   -1.37400811300969
H        -3.95011198965027   -3.30132792659274   -0.54673638017123
H         1.27340059383457   -2.83289170944361   -0.04783415878820
H         1.81874549861328   -3.72875055684361    2.08918678310167
H         2.19856973494607    0.57784555253124    2.90086268804615
H         3.42917885433728   -0.53655548236428    3.52628532842790
H         3.59953262847722    2.47367545172909    2.57713235229235
H         5.37209282131747    3.59555045668174    1.30117452847330
H         6.82125420656859    2.29465825547131   -0.21339759217020
H         6.50430992466804   -0.14479343174821   -0.41279980568602
H         4.74505937785565   -1.27056248680673    0.88044640600585
