72
 energy: -121.662624652799 gnorm: 0.000320690264 xtb: 6.3.3 (4ae9cef)
C        -3.95110937172285   -3.87955470129091   -0.75111986205889
C        -4.48939298413596   -2.91395564854781   -1.55202000813091
C        -3.98728722952533   -1.60671835059781   -1.49304134472990
C        -2.94813078484908   -1.30051122483973   -0.66006184839845
C        -2.34238205828187   -2.27455190482841    0.16073840422931
C        -2.88289527597284   -3.59100073621512    0.12458612895364
C        -2.35878496523515   -4.58719573390051    0.97154084793319
C        -1.34890995146720   -4.28913379329090    1.83935572332826
C        -0.80219528348739   -3.00160244427426    1.86152422636808
C        -1.25161062106375   -2.00400779117545    1.03016131985965
C        -0.53360821373300   -0.67882323124540    1.08450038158155
C         0.20575521463275   -0.25330715715847   -0.20236239447534
C         1.45554206172888   -0.99379546315806   -0.59078326115219
C         2.06975843260602   -1.88676766487492    0.24797232226707
C         3.21165741954214   -2.59643801527278   -0.14950934431618
C         3.74027912438857   -2.40818762746641   -1.39218988118215
C         3.13810525076093   -1.50794112524650   -2.29486079429013
C         1.97276398382035   -0.79527033655657   -1.90411447860763
C         1.39847979841331    0.09976632975943   -2.83406243983027
C         1.94937905774690    0.27653810134014   -4.07336253302560
C         3.10291283828699   -0.42319988488722   -4.45257828714697
C         3.68187398882780   -1.29845118370937   -3.57923380035956
N         0.33244804883329    1.18667744430041    0.03095803007472
C         1.37476224447057    2.05490834666845    0.12490399289452
C         2.73097449275560    1.56053436236245   -0.19695896189069
C         3.56662885291346    0.82396343748740    0.58785424881019
O         4.75484319131395    0.65483236671776   -0.01294453659415
C         4.70509150491267    1.29802629336035   -1.19977782801617
C         5.89954566527707    1.25484733160903   -2.08198942821644
C         3.48800910033669    1.88762704993551   -1.35727365302877
O         1.17696883666722    3.20943570219041    0.45473413779242
C        -0.96163860057948    1.59781620369740    0.52574532638807
C        -1.87264453452505    1.87231195387713   -0.68656734310996
O        -3.11610155664702    2.20771840081975   -0.35265049159563
O        -1.49006691030374    1.83415671065915   -1.82383088951787
N        -1.38850249243189    0.49168220374420    1.36484132374257
C        -1.84249275658794    0.57729186210130    2.65901847376563
C        -2.35961688515808    1.84990959051374    3.18055249316401
C        -2.39923121620575    2.08203480590550    4.53274185582110
O        -2.89667300434359    3.28987278544748    4.79885567765049
C        -3.21063293600751    3.86832320517025    3.61641246016936
C        -3.80941526864993    5.22841949986959    3.62906871412006
C        -2.89746491572837    3.03144905476889    2.58918041877150
O        -1.79226298738561   -0.40644744383958    3.37530622697661
H        -4.34138669641955   -4.88725715370460   -0.76827613474759
H        -5.30660938564849   -3.14355944345183   -2.21968773837371
H        -4.43140616659644   -0.83942191281637   -2.11072206728684
H        -2.59929154491477   -0.28510169791748   -0.60559883940462
H        -2.78234461765159   -5.58034864029690    0.93155386427872
H        -0.96076854859469   -5.03896003736127    2.51229936020003
H        -0.01599818843796   -2.79373174590623    2.57187160622358
H         0.18616156397050   -0.73468770409626    1.91369169349342
H        -0.49592054172818   -0.37442102275584   -1.03923753256324
H         1.68802141129718   -2.05868885969430    1.23978359189559
H         3.66728816720177   -3.28778322635586    0.54335656234264
H         4.62546200189638   -2.94355008166103   -1.70416506239172
H         0.52301363882110    0.67122955206476   -2.57139496997385
H         1.49481850779518    0.96680605054232   -4.76853279343801
H         3.52582908605900   -0.26598348023901   -5.43398473273279
H         4.56988855810963   -1.84822322406600   -3.85798977881647
H         3.43809592137988    0.38709984948973    1.55766481748759
H         5.68265663657491    1.76862127622506   -3.01295272943237
H         6.75079524297337    1.73218413259026   -1.59811866967985
H         6.16875414912083    0.22204291890203   -2.29686506103011
H         3.15104364945301    2.47080290261249   -2.18816261265411
H        -0.86347026504241    2.53701925001914    1.08802138098558
H        -3.65029499715793    2.38527783684789   -1.14523047082175
H        -2.08890677977954    1.46528101531796    5.35203340114818
H        -4.82057740801861    5.19631284279805    4.03414377303671
H        -3.84606947909906    5.62281707140297    2.61847021005596
H        -3.21815782191725    5.89412064207322    4.25497584895483
H        -3.07335339784621    3.22082030948900    1.55379075827806
