66
 energy: -134.180838662837 gnorm: 0.000410986991 xtb: 6.3.3 (4ae9cef)
C        -2.54826301699384    2.38990938152288    1.61415493421922
C        -2.97841956868084    3.31917014875819    2.54648995733065
C        -2.14755546587608    4.35532690994213    2.93352282407180
C        -0.88719118168885    4.46910664159532    2.37066496044039
C        -0.45544700055048    3.54062078100976    1.44152197775619
C        -1.27654553223251    2.48273847124173    1.06709972449366
C        -0.77436649402005    1.48324353473247    0.05037128636805
C         0.60145749728974    0.86896572483149    0.43499024387235
C         1.59808639575631    0.94901595497365   -0.69339175486846
C         2.75916731323963    1.69793381873484   -0.55461877971454
C         3.68212215970208    1.75197539628267   -1.58385935504782
C         3.44809434360495    1.06458180613424   -2.76247313308521
C         2.28162293934960    0.33396741934667   -2.91408246751238
C         1.35901493254727    0.27616182451890   -1.88561223667435
N         0.26657844520099   -0.50714384048450    0.77140051681983
C         1.10269414842014   -1.54011975878828    1.01564634079480
C         2.55007572822529   -1.20201034816446    0.96801178527911
C         3.47372511075609   -1.68673146121215    0.08235011050218
C         3.31929921742730   -2.59418613453925   -1.08927480688930
F         3.72416133579287   -3.84974212912637   -0.83484873546165
F         4.03776218304809   -2.18126321613323   -2.14574614721463
F         2.04677178352269   -2.67258397707456   -1.49148587218014
O         4.70047573900134   -1.20230276283519    0.35999647128075
C         4.58410379651705   -0.41186768095554    1.44206565596462
C         5.80281625421995    0.25723488175639    1.95991741792665
C         3.28454981862069   -0.37643746472806    1.85941222841329
O         0.69489458633521   -2.65448263472516    1.26620260377573
C        -1.16111604741931   -0.71678966160195    0.76318480321424
C        -1.75642354916980   -0.58159282596125    2.18219992367537
O        -0.88308710834827   -0.08876210003884    3.04934124749733
O        -2.88346972635202   -0.87929296332654    2.46250325422244
N        -1.64798651399196    0.33065020969469   -0.09074437968681
C        -2.42733451132015    0.19914493207978   -1.20272456099911
C        -3.13419097974693   -1.09286020703401   -1.35378614186660
C        -3.27146029913790   -1.77536058371136   -2.53723734421703
C        -2.67233951911124   -1.51408422275057   -3.87888977453420
F        -1.43459695445263   -1.00652221983621   -3.77300267112850
F        -3.38195644352711   -0.65156510499012   -4.61960035592391
F        -2.56764035163972   -2.63651808503956   -4.60344605272162
O        -4.03430708554893   -2.86912545369516   -2.36912153015628
C        -4.41684240792481   -2.89899788046160   -1.07730745371695
C        -5.28494819312264   -4.01156493278448   -0.62130602926384
C        -3.89107538742220   -1.83315653301017   -0.40508181500736
O        -2.55626150865781    1.10276551722274   -1.99847687367560
H        -3.21358538754729    1.59795056177298    1.30577947381079
H        -3.96934324158647    3.23221569968577    2.96622822512496
H        -2.48412385603507    5.07881791509059    3.66067599110194
H        -0.24014301205429    5.28637358872962    2.65280448427917
H         0.52059670205710    3.64512612285931    0.99007556468497
H        -0.72239557737546    1.97665087162202   -0.92873363916634
H         1.00043085268712    1.37281029185392    1.32335318444749
H         2.94589921661415    2.23185652481562    0.36685233736475
H         4.58591360248005    2.33095512632200   -1.46384816740127
H         4.17276515958179    1.09821322036753   -3.56119803441320
H         2.08729815509747   -0.19843895821486   -3.83149448484958
H         0.45633098475738   -0.30127472411446   -2.01355015936091
H         5.56704390305547    0.80660650995321    2.86548416775806
H         6.57410240417820   -0.48003486972001    2.17457752598772
H         6.19744435115982    0.94463673099256    1.21318805149656
H         2.89018519836026    0.15123286907718    2.70279858863229
H        -1.40407226485423   -1.72019192858549    0.39141974169935
H        -1.27612359955549   -0.02009919767415    3.93513454623424
H        -4.80187405656637   -4.96807139822753   -0.81353156509209
H        -6.22988519074665   -3.99936593983526   -1.16224899998003
H        -5.47696021890183   -3.91129336301496    0.44192330321002
H        -4.02415200645410   -1.59212482510536    0.62937686804464
