78
 energy: -124.153561651388 gnorm: 0.000924910717 xtb: 6.3.3 (4ae9cef)
C         0.90495698272182   -2.90283165146184    0.00638738152307
C         1.87255947478108   -3.77736368391975    0.40876578747990
C         3.03017601015187   -3.32111626577159    1.07142014188547
C         4.06890923501362   -4.19203287939273    1.45849840857692
C         5.18067130706017   -3.71317866997516    2.09333049187168
C         5.30199435635983   -2.34304072976504    2.37469644276928
C         4.31064459960128   -1.47385222770204    2.01596349303363
C         3.15438182344979   -1.93585461801960    1.35360559647838
C         2.13077322716671   -1.06206113693128    0.94145499665027
C         1.04093619701587   -1.52413475894507    0.25042558233119
C        -0.02026526022368   -0.57283290646572   -0.23499832101478
C        -0.85564471612308   -0.01237964739472    0.94226837275696
C        -2.23423365899967   -0.62427686835357    0.97521383974144
C        -3.27527264857204   -0.09416617371644    0.26154621603162
C        -4.54766575477411   -0.69971450551886    0.28550615344384
C        -5.63780460889698   -0.15985354682542   -0.42835804578393
C        -6.86273933232176   -0.76464632254375   -0.38909449335297
C        -7.05263197173257   -1.93563331007027    0.36201574973575
C        -6.01466750392718   -2.48342954988101    1.06286937989907
C        -4.73904694127590   -1.88281880541289    1.04495798428269
C        -3.64396503894769   -2.41366455189582    1.75840839965216
C        -2.42533562204103   -1.79945123613333    1.72734042198915
N        -0.85006354132662    1.42609255371914    0.74004228442977
C        -1.43810807105895    2.25862070614522    1.64565511241104
C        -1.29548867489185    3.71070712118576    1.32257131888565
C        -2.37637254855142    4.42019268606431    0.81895976622402
C        -2.24037555246219    5.76143675757640    0.51264647920993
C        -1.03567253569431    6.42289872077375    0.71497956814960
C        -0.88035457194270    7.86746776652446    0.35063970310961
C         0.03253785586220    5.71110079344148    1.24749697492692
C        -0.09191149414080    4.36795006744456    1.54848813733122
O        -2.00515710095407    1.83026721971939    2.62650386803475
C        -0.11373134403040    1.82949085185945   -0.42033370301173
C        -1.01057821162667    2.45175714421707   -1.53590263950846
O        -0.33251781578803    2.97634642293246   -2.53380196421142
O        -2.20611228452583    2.45451086462324   -1.47073170320993
N         0.52884433258662    0.60966189185030   -0.88455055605856
C         1.58094943264345    0.68452502331946   -1.72375789112445
C         2.24745489187791   -0.58630428658256   -2.10172236133840
C         3.59035301089292   -0.77196719226430   -1.79327662010041
C         4.21516144724207   -1.95952159498589   -2.11447711051626
C         3.52850665463946   -2.96933655702953   -2.77994606436178
C         4.21860578571100   -4.25404018898476   -3.11615014604651
C         2.20472062160655   -2.74969126887214   -3.13729373031525
C         1.56296910123989   -1.57324704788562   -2.79861428302686
O         1.95780718008357    1.77578353600251   -2.15292243826540
H         0.02563749667386   -3.25841046559549   -0.51012620584278
H         1.76886887745621   -4.83443876879764    0.21261584018368
H         3.96937014799402   -5.24601221485942    1.24177966663771
H         5.97418526145855   -4.38511201881365    2.38532702585140
H         6.18725064624055   -1.98291592235270    2.87761882800249
H         4.40009615408676   -0.41839642344947    2.22963777714483
H         2.23602638399382   -0.00620030936894    1.15114831128798
H        -0.69156976206748   -1.08932164293776   -0.93419573663723
H        -0.35802819814268   -0.22797800719282    1.89842981607306
H        -3.14342281729057    0.80523449432264   -0.32125207915383
H        -5.48132016712431    0.74167189614813   -1.00269469526004
H        -7.69592797468126   -0.34635369615821   -0.93489764888264
H        -8.02824495879742   -2.39943849616036    0.38171874885587
H        -6.15689084546077   -3.38397846713994    1.64364230870201
H        -3.78831389291772   -3.31386152502809    2.33880781718105
H        -1.59233559561720   -2.20740370946053    2.28265872063759
H        -3.31428887135564    3.91301479573730    0.65571701879191
H        -3.08317252451554    6.30268460158100    0.10834626375958
H        -1.84030511408039    8.37744662876382    0.36546965370158
H        -0.46798297974555    7.95217209557409   -0.65544796575142
H        -0.20061214299954    8.36986962549750    1.03531463737572
H         0.97152736034425    6.21457822465957    1.42876232515997
H         0.74353829552393    3.83105405038662    1.97752284707296
H         0.66044799677669    2.58017806597965   -0.17894091936775
H         0.64292776768741    2.76546977727729   -2.47982617203976
H         4.13149386563142    0.00918624126615   -1.28131852534596
H         5.25022770822991   -2.10883176035275   -1.84402217264092
H         3.50179313492917   -5.01873634782156   -3.40346559806094
H         4.90847557672911   -4.10209308097288   -3.94626439584617
H         4.79535351547247   -4.60950527847398   -2.26449725811392
H         1.66404003796151   -3.51185689557444   -3.67931820825982
H         0.53296389474076   -1.41808041140701   -3.08498000682332
