66
 energy: -132.532553940666 gnorm: 0.000840598072 xtb: 6.3.3 (4ae9cef)
C         0.87559476985094   -3.01383680842778    1.96357374784002
C         0.75065381526862   -3.99296121597145    0.83095761822049
F         0.88252033209965   -5.26694508096204    1.21911752551791
F         1.65551975389794   -3.81322567545887   -0.14854000810402
F        -0.45655808853178   -3.92369320586922    0.21970672256702
C         1.12869191447916   -3.50142407910384    3.23999985270056
C         1.22160340166965   -2.63394731171174    4.31051868560082
C         1.05164144207394   -1.27470105907418    4.11053846469491
C         0.79548345284841   -0.79047773312854    2.84364027577467
C         0.71659843329444   -1.64541304333167    1.74954628545517
C         0.41834988198004   -1.05853459770063    0.39498874896718
C        -1.00579327793868   -0.45609310086681    0.33268373077007
C        -1.98423294349462   -1.35307887031898   -0.38581808460333
C        -2.98010741982359   -2.07414829856393    0.27481215390090
C        -3.13984881276816   -2.00170359011754    1.76828494181166
F        -4.13053660696505   -2.77788210235745    2.22621843577412
F        -2.03063478744673   -2.40754022730012    2.42855388872447
F        -3.39987785245663   -0.76756699423816    2.23053004731331
C        -3.84886725111029   -2.89037878749484   -0.43906380290455
C        -3.73876134975386   -2.99777631999715   -1.81193989572862
C        -2.75335122401122   -2.29029998545865   -2.47667485943812
C        -1.88676436606871   -1.48317162002255   -1.76614266684213
N        -0.81652696056656    0.81569964286702   -0.36017320624333
C        -1.91115772878861    1.54839294420240   -0.72109620617797
C        -1.69218569807246    2.83412071331005   -1.40130021537660
C        -2.41212519698390    3.29545128658917   -2.47266637909572
C        -3.44958110399916    2.51599343691740   -3.20473001706980
C        -2.01401223427742    4.60051867005276   -2.85917808742245
C        -1.04010186003235    5.11937672432277   -2.07459794986325
S        -0.55319238782826    4.02420424343223   -0.84629963828353
O        -3.02794874355112    1.12895611608442   -0.48251470412757
C         0.56923817681874    1.02942885162111   -0.70667146969426
C         0.77526667014435    0.77715457444693   -2.22335752088937
O         1.58200241680170   -0.25318001714587   -2.44724023954651
O         0.24795867751469    1.42094449617608   -3.08523930616390
N         1.27589892820555    0.08701514157677    0.10680632809848
C         2.60285096494747    0.07990856760300    0.41990961036514
C         3.38098558582255    1.29735774005950    0.11355781360268
C         4.27338895494480    1.89301375403083    0.96949781772346
C         4.52589438393051    1.47620998963801    2.37836691769629
C         4.91953348973633    3.00707260765648    0.37578336777211
C         4.54654404232645    3.22152135175753   -0.90879418397408
S         3.37626636129351    2.08458155234601   -1.43911996712825
O         3.10808889386239   -0.86095976446726    1.00003729849617
H         1.25118571865813   -4.56253276161058    3.39062714712968
H         1.42206450299706   -3.02004948748834    5.29756856190019
H         1.11616231139822   -0.59099967722183    4.94336253014613
H         0.66862165105054    0.27126756851595    2.68936394305333
H         0.54278481540757   -1.79973373063336   -0.40143938940173
H        -1.36452962933617   -0.23081566862459    1.34177787270027
H        -4.61501713083003   -3.43976705939262    0.08493766744320
H        -4.42137887561605   -3.62988966306418   -2.35764057906671
H        -2.65918620418168   -2.36436324569053   -3.54943677427450
H        -1.13064365644774   -0.92431885237660   -2.29580395458488
H        -4.27645402415952    3.16577260652579   -3.48440515676419
H        -3.82402798777290    1.70350860624668   -2.58923592023245
H        -3.01694834203656    2.10090504377950   -4.11562029066325
H        -2.45318983014426    5.12511898426442   -3.68876531994213
H        -0.57289979202929    6.08237118708326   -2.12978217414116
H         0.88130622135048    2.05948929189855   -0.49232647670262
H         1.72568977746347   -0.39712872244426   -3.39718035956259
H         5.59773524051533    1.43169511495557    2.56100205855704
H         4.09706951874478    2.20546923697328    3.06610448978166
H         4.09435260309564    0.49980152856021    2.57478002479796
H         5.64103705556193    3.61124584305322    0.89585386081159
H         4.88785820701309    3.97496894111024   -1.59021663171934
