68
 energy: -113.080538501778 gnorm: 0.000254596993 xtb: 6.3.3 (4ae9cef)
C         1.39325435883518    2.70899180060193   -1.75682011207681
C         2.10957331751676    3.59050877472901   -2.54611032946555
C         2.72967014372227    4.68973735234267   -1.97657081692464
C         2.63196487549337    4.90383831882159   -0.61257315251063
C         1.91851189669682    4.02148592589650    0.17879959767092
C         1.29589814878079    2.91820456480186   -0.38709941527466
C         0.51241796716760    1.96439799421795    0.47917923793339
C        -0.96842906530112    1.84458918815022    0.07317754560387
C        -1.88602852786424    1.98799412467072    1.26671018218042
C        -1.95343976200341    3.22479899071909    1.89923416168880
C        -2.76506002574427    3.40386412528909    3.00348689531324
C        -3.52104009925969    2.34818238213212    3.48678817213181
C        -3.46159740757743    1.11818793139224    2.85676406330846
C        -2.64669744979472    0.93533317099273    1.75136382085419
N        -1.05532395991422    0.54561914618654   -0.56905011374279
C        -1.99291391499708    0.32567168856534   -1.52870234130303
C        -2.04315658225323   -1.04403490472481   -2.11883540617987
C        -2.25095872706471   -2.18968541187079   -1.33592431327778
O        -2.36309666373975   -1.99952543707551    0.00639681130498
C        -2.35196296597792   -3.13094169246418    0.85048367917557
C        -2.33461736242784   -3.42846396845626   -1.96046877993926
C        -2.22184493673550   -3.52694007195771   -3.33592125146565
C        -2.04134860116808   -2.39680398477015   -4.11298954829063
C        -1.96862215717620   -1.15946636197401   -3.50045906517698
O        -2.73104844600678    1.21551829944018   -1.90033646750266
C        -0.00067833520713   -0.32734216130441   -0.12267870392866
C         0.55829164737305   -1.21318029054409   -1.25045870997211
O         1.02498093588154   -0.49310185664728   -2.26518575896886
O         0.59894593574484   -2.41206795438910   -1.21797091322449
N         1.00257218488127    0.59416448006201    0.37213753983498
C         2.24654700735255    0.28291125935621    0.80642574963428
C         2.60875379722833   -1.16485469783252    0.69538084049154
C         3.61027645932808   -1.51782499472705   -0.20036778823846
C         3.96359880396957   -2.84222798824116   -0.37857631073994
C         3.32112006454003   -3.82724513163601    0.35139385766631
C         2.35087364785079   -3.48565708136250    1.27440258500025
C         1.99210876006792   -2.15712175924034    1.46252781112484
O         0.97438264622334   -1.88642414992569    2.35234284320876
C         1.28029356595496   -1.01744736179867    3.42706107951610
O         3.00879131808121    1.12913496904734    1.23172337210326
H         0.91394448185085    1.85249197301921   -2.20528330381556
H         2.18356653912142    3.41857021385978   -3.61004575549154
H         3.29020570275443    5.37601661047439   -2.59417130909359
H         3.11652968389578    5.75757995094232   -0.16235606415209
H         1.85403435132988    4.18303275886637    1.24471932064164
H         0.60706067678967    2.28134266579191    1.52584464088681
H        -1.23993860407661    2.60475873653712   -0.66927465293270
H        -1.36905046897441    4.04927863472150    1.51562202285889
H        -2.81209184921131    4.36927973846095    3.48546808328464
H        -4.15860725273566    2.48778521844534    4.34721619786144
H        -4.05586117730015    0.29407245129465    3.22385590673663
H        -2.62165857001327   -0.02300737619286    1.25679936200369
H        -1.46193524118658   -3.74041436255915    0.67215477590703
H        -2.32327610128642   -2.73946375771850    1.86647584376182
H        -3.25418849912126   -3.73612933483104    0.72173679889505
H        -2.48446322695548   -4.32404546154562   -1.38010420999701
H        -2.28314884156143   -4.49966863508492   -3.80057154201304
H        -1.96336587757620   -2.47754050283824   -5.18615883185774
H        -1.83994152399383   -0.25972409815586   -4.08354819540846
H        -0.34121864524885   -0.99977777022626    0.68426603618852
H         1.38520660030926   -1.06680245926698   -2.96101284943479
H         4.09323292723880   -0.73515851875969   -0.76749054194827
H         4.73294420353127   -3.10409344837139   -1.08894593819657
H         3.58295820927805   -4.86481848982347    0.20964033179509
H         1.84769233299143   -4.24073900949891    1.85819311554025
H         1.95301778377013   -1.51042310964643    4.13691610116625
H         1.74139134688237   -0.08570119887866    3.09530010546248
H         0.33199854703479   -0.79948264548169    3.91607400380770
