78
 energy: -132.890283662709 gnorm: 0.000410363229 xtb: 6.3.3 (4ae9cef)
C        -2.91700649941834   -1.19090688013110    0.21513021003251
C        -4.05234394779189   -1.68532447396957   -0.35896836481658
C        -4.12719703783629   -1.89024963444385   -1.75211966278720
C        -5.29925741372458   -2.35659081440957   -2.38136372828749
C        -5.33714644320020   -2.54130617347069   -3.73507270064778
C        -4.20504056091858   -2.27128659626386   -4.52036282738386
C        -3.05458695551049   -1.81574459372000   -3.94067322145598
C        -2.98556849221057   -1.60893107797296   -2.54738090129067
C        -1.82890026737451   -1.10029838145866   -1.92496030968472
C        -1.79727123323231   -0.86835988989435   -0.57429672878635
C        -0.59095740788288   -0.23314654699411    0.06781284763429
C         0.63700821393775   -1.16682285456409    0.11214813696429
C         0.95822995693900   -1.59018632370197    1.52385323338018
C         1.45689809114637   -0.68171074729311    2.42146283030131
C         1.74674628566462   -1.05990783060560    3.74661969433467
C         2.27346163785568   -0.14537289595863    4.68291565668012
C         2.54816335276785   -0.53946353058819    5.96211548546360
C         2.30790103091654   -1.86352157707870    6.36369656628752
C         1.79661648271732   -2.77196996395026    5.47978895379656
C         1.50297756288248   -2.39808566534257    4.15198159312212
C         0.97793479264616   -3.30672997622214    3.21005042589297
C         0.71360717576264   -2.91410181558657    1.92912244357443
N         1.71407009636344   -0.38456680864523   -0.48344659180245
C         2.98869675138993   -0.84969391105143   -0.46293278465869
C         4.00074614586914    0.05887251731239   -1.05967928743798
C         5.02973169146505    0.64302629148816   -0.40174929726033
C         5.86742690367176    1.42099990614747   -1.25309735408358
C         7.00007189251166    2.17133796995547   -0.93097365684251
C         7.66893695306280    2.84583934995188   -1.92738611185148
C         7.22964132093792    2.78984886503080   -3.25047970911855
C         6.11330329263370    2.05664953056692   -3.59604491235023
C         5.43807312655642    1.37797804118169   -2.59327119550182
S         4.01661532930331    0.39094077908281   -2.77355589999233
O         3.28139256327701   -1.92553897299262    0.01200591702518
C         1.27865571591842    0.88640140461636   -0.99647012848121
C         1.98095139906210    2.08325671699454   -0.31661352833537
O         2.67268210226649    2.80902825794516   -1.17696189277985
O         1.90735761517609    2.30388019469053    0.86075355281399
N        -0.13063612440752    0.92660781694102   -0.67926970721779
C        -0.81223451235505    2.07851761183092   -0.89479419949132
C        -2.26227210393886    1.99381388782154   -0.58693497487546
C        -2.87468495169809    2.00215080048895    0.61936041022060
C        -4.28458476028228    1.81091179108779    0.52681242157267
C        -4.70578098859961    1.66389130506937   -0.80835196533945
C        -6.03123098966905    1.41476457693239   -1.12946740312405
C        -6.94445667720571    1.31350881663265   -0.10071895788915
C        -6.54662778663626    1.46596769282556    1.22780258228470
C        -5.23109267392204    1.71441374427697    1.54820382094492
S        -3.37367133795162    1.80967088781135   -1.91750597990829
O        -0.26207304298550    3.06028785779474   -1.35165246587155
H        -2.87140291544277   -1.02513310108369    1.28161696156404
H        -4.91738516034243   -1.90992689249068    0.24779151838750
H        -6.16726942685543   -2.56196100563038   -1.77140365544503
H        -6.23869422279176   -2.89694560952308   -4.21190958851994
H        -4.25339467119445   -2.42459670765159   -5.58834013491016
H        -2.18269508191670   -1.60041494721947   -4.54122984655175
H        -0.97220416144370   -0.85890310812852   -2.53884722880615
H        -0.84428089008369    0.07253393952905    1.09145745960330
H         0.46863566369193   -2.05829791469741   -0.50663331138688
H         1.64703933733798    0.34000364283026    2.12241057914704
H         2.45554924459314    0.87123121046117    4.36480254217501
H         2.95328685237444    0.16385953876520    6.67514968604669
H         2.53209411391535   -2.15703463402235    7.37896379675523
H         1.61134797409692   -3.79228334251255    5.78457057378222
H         0.79417246061583   -4.32609935472117    3.51790074671033
H         0.32038923980713   -3.61856164433945    1.21083285413527
H         5.18447116686099    0.53674694565370    0.65728884093941
H         7.33932812002383    2.21021515003658    0.09320376717081
H         8.54694999417775    3.42613199192403   -1.68638495818371
H         7.77189839386658    3.32660647584725   -4.01400984871993
H         5.76881142437554    2.00788044357080   -4.61701711427028
H         1.43122011752535    0.98157986025135   -2.08444695108327
H         3.03854128498907    3.60410261149490   -0.75657314237132
H        -2.35383697010483    2.13209826566616    1.55181955512412
H        -6.32968340139018    1.29671451801576   -2.15924300564913
H        -7.98117596427783    1.11369372479225   -0.32570311492534
H        -7.28364487748087    1.38452435920677    2.01274641062258
H        -4.92134391885256    1.82948790580688    2.57610827568713
