92
 energy: -147.581601501160 gnorm: 0.000370736818 xtb: 6.3.3 (4ae9cef)
C        -0.21202392206525   -2.11353582259795    2.66020484111962
C        -0.44749204128082   -2.27796172036847    3.99393213989437
C        -0.06447661423262   -3.46374399634538    4.65412238079989
C        -0.29615981414649   -3.66808689567578    6.02966121051880
C         0.08955648513642   -4.83038820216055    6.63645846705641
C         0.72635400454702   -5.83896964870997    5.89623768538448
C         0.96481235735861   -5.67035915652654    4.56122706209873
C         0.57659619523838   -4.48396287580617    3.90463277237358
C         0.80690409885065   -4.28136866494348    2.52913510140904
C         0.42211215390985   -3.12291191537674    1.91004101901844
C         0.64597398997387   -2.92640014498992    0.43106535172058
C        -0.68565022626738   -2.96359963001292   -0.34914982394220
C        -0.64484542398270   -3.62169622600145   -1.70827954254864
C        -1.83433414571017   -4.01732159896339   -2.26738202425559
C        -1.88970533288885   -4.57051486554791   -3.56091298431296
C        -3.10474235991282   -4.98093256569966   -4.14959814064012
C        -3.12394755977730   -5.51189037958537   -5.40838635698658
C        -1.93167258514158   -5.65899095142518   -6.13624343809632
C        -0.73892872024599   -5.27095545897195   -5.59398113035505
C        -0.68530833965905   -4.71781131188704   -4.29753988388051
C         0.52334983391516   -4.30181013303380   -3.70388590056007
C         0.54622221597967   -3.76683672240865   -2.44596208974105
N        -1.00615350329566   -1.54634277673132   -0.51070631800911
C        -2.19718347169997   -1.01365595751193   -0.11831067731906
C        -2.20783557507609    0.48337219877143   -0.11650120323505
C        -2.14195369562221    1.17285916357636    1.08880925482021
C        -2.10401011024109    2.55398296531771    1.09842247080428
C        -2.14920222933341    3.27624539855961   -0.09221717703275
C        -2.10346495933948    4.74599523439775   -0.08621744306300
C        -1.37675462155092    5.43674770125136   -1.05426489801668
C        -1.33608936454697    6.81864040213540   -1.05109241576277
C        -2.02075871502591    7.53329246350682   -0.08213151442749
C        -2.74583969203247    6.85725381588472    0.88489540086597
C        -2.78659567265910    5.47543869844414    0.88456305942930
C        -2.24695502086057    2.57563672224145   -1.29336283095061
C        -2.27229789606733    1.19488584847779   -1.30877961385003
O        -3.14287507735670   -1.70346907177821    0.19025546209994
C         0.22874223843224   -0.83569219850480   -0.65770428603419
C         0.70728331738517   -0.78799043919824   -2.12401952198405
O        -0.31049307867470   -0.68588720324574   -2.97319427487394
O         1.85831790463479   -0.79595386295757   -2.45435660213442
N         1.15526615571380   -1.58463339455923    0.15727443848511
C         2.32863320299752   -1.12950930102269    0.67424327116717
C         2.50801454804724    0.34940643273529    0.53204825756117
C         3.41719189056916    0.89893382091431   -0.35954717450686
C         3.54790643247304    2.27221893730393   -0.45401081363893
C         2.78417023212061    3.12261285249208    0.34310093182266
C         2.92446115830668    4.58312403459513    0.24846334801634
C         4.17595644979996    5.16874254870011    0.06824976050223
C         4.30556968743130    6.54278908040492   -0.00845787082684
C         3.18832866952290    7.35537332527118    0.09126963806172
C         1.93972897353565    6.78433259905410    0.27044709976000
C         1.80830024469787    5.41073720977232    0.34965665155099
C         1.88537322589253    2.55955052516265    1.24772019344098
C         1.74895684210883    1.18953262721586    1.34218223564133
O         3.10861962392496   -1.86097292756417    1.24166283888024
H        -0.51116757351388   -1.20071893146328    2.16572741293837
H        -0.93318276974378   -1.49931739712968    4.56513408282098
H        -0.78543966117733   -2.88799214526029    6.59563120288334
H        -0.09156209726953   -4.98160467797606    7.69060676317136
H         1.02612218322542   -6.75012855202363    6.39304059257942
H         1.45579253499981   -6.44318828592131    3.98746636053189
H         1.30096025741328   -5.06007023010126    1.96577125976832
H         1.35171053949228   -3.68352900107176    0.07775684023439
H        -1.48541748152641   -3.41366209568147    0.24853802974488
H        -2.75319805243374   -3.89566376566660   -1.71179642206325
H        -4.01808599148752   -4.86585805593211   -3.58422314411465
H        -4.05677079769494   -5.82416855391601   -5.85449100231212
H        -1.96693480357809   -6.08266002733920   -7.12923427624724
H         0.18174827184391   -5.38319654341399   -6.14893410038472
H         1.44213082329600   -4.40990499519737   -4.26247228888903
H         1.49006360821229   -3.45280240776295   -2.02719437564967
H        -2.11758923627748    0.62390795116171    2.01914835095669
H        -2.02215334986957    3.07790622782969    2.03921703899809
H        -0.82157542746244    4.88649234848190   -1.80019500978986
H        -0.76508723695149    7.33845201476826   -1.80655152395557
H        -1.99058466778095    8.61291709278283   -0.08098510221967
H        -3.28542437145257    7.40952399387472    1.64027586021307
H        -3.37251281035842    4.95556461792038    1.62834696668260
H        -2.31947501834537    3.12055830420155   -2.22282799059197
H        -2.34454631122279    0.65957048081132   -2.24315390399157
H         0.13942081038783    0.21014804976427   -0.32945341219834
H         0.00640515115895   -0.66053443803215   -3.89129363196770
H         4.00603085688468    0.24794035881346   -0.98624077109710
H         4.24014223914871    2.69176066162214   -1.16886896029256
H         5.05422395503144    4.54259515360775    0.01204045106695
H         5.28309852225165    6.98267958047130   -0.14263908978289
H         3.29130026599436    8.42878454009411    0.03160830630150
H         1.06120213164309    7.40808333487534    0.34864349015603
H         0.82677360216546    4.97606722112569    0.47093758611214
H         1.30553518114982    3.20051390447497    1.89519149853209
H         1.06309436009602    0.76398668103558    2.06168551853772
