78
 energy: -124.150535536752 gnorm: 0.000645965876 xtb: 6.3.3 (4ae9cef)
C         3.18440464630131   -2.19643929194684    2.62170950955192
C         3.19850913433012   -3.26182371371586    1.76852449309237
C         2.55592905010173   -3.16670129149183    0.52598699458060
C         1.93806255684191   -2.00803994121734    0.14815726205674
C         1.92943225917514   -0.87430825579462    0.98986004973995
C         2.54700544495054   -0.98901309191486    2.26658384944163
C         2.51033579995093    0.09705393388266    3.16346558495024
C         1.87805836265371    1.25863870111526    2.82270745596427
C         1.30268752258033    1.39345654096336    1.55505095192135
C         1.34712733321156    0.37081941018855    0.63704172224594
C         0.75791110977729    0.63737758602960   -0.72877313102536
C        -0.77673183058847    0.81723236143524   -0.63545663954643
C        -1.55109535645131   -0.24244594289331   -1.38303913502061
C        -1.69531723832453   -0.12915204365067   -2.74325784510085
C        -2.48736623190641   -1.02604240934391   -3.47034557661593
C        -3.15312134679308   -2.02616444581685   -2.82242604208243
C        -3.00775438777539   -2.20027696622559   -1.43105084060776
C        -2.16754721154363   -1.32102135277983   -0.69381449174814
C        -1.99540682056824   -1.57123442318702    0.68515021285614
C        -2.65323709161922   -2.59649286652136    1.30495895055900
C        -3.51685542272379   -3.43234523401815    0.58344001860748
C        -3.68064299429354   -3.24176975698044   -0.75848918856504
N        -1.02016716176459    2.14678214690630   -1.16534047089348
C        -2.18684114251787    2.82726357990592   -1.02862912076754
C        -3.27243234720181    1.99341215176362   -0.41921386212606
C        -3.33932909609851    1.80316313215797    0.95378928544646
C        -4.28771633173146    0.95117829874025    1.49087348741305
C        -5.18458093953321    0.27768265883453    0.67330731276162
C        -6.17499609187312   -0.69155372772574    1.24051827157895
C        -5.13913229400411    0.51068732740519   -0.69631812109014
C        -4.19687483418181    1.36135965246722   -1.24038091789752
O        -2.31277360469581    3.97491215574069   -1.39610545198533
C         0.15793926301235    2.72988328531537   -1.76307719829946
C         0.32623445122008    4.21607863930059   -1.38728437977130
O         0.34342874854999    4.37411884241252   -0.06032143978031
O         0.38542058556382    5.10489052292675   -2.17990148905919
N         1.23622637245429    1.89997867145677   -1.27274987964312
C         2.49364948178440    2.39972073322302   -1.15501668387698
C         3.52959697470781    1.41700103651219   -0.72513640538795
C         4.29687389863970    1.67534191636701    0.40392467726263
C         5.23593442033766    0.75652059708594    0.82977735455531
C         5.45318665265247   -0.42064911507878    0.12436170563555
C         6.43741869789084   -1.43812880655847    0.61143343239382
C         4.72431137877646   -0.64253220134842   -1.03757214880126
C         3.77016966916507    0.26261951279768   -1.46024307912881
O         2.73414465417246    3.56407809254486   -1.40590700207590
H         3.65907408253841   -2.26049746759734    3.59057681789046
H         3.68971846787014   -4.18298929113907    2.04600142183652
H         2.54999826581560   -4.02121399181557   -0.13437792917105
H         1.43665265703278   -1.97564779455423   -0.80655022727565
H         2.98612846483457   -0.01051707141214    4.12737630231278
H         1.83322305305199    2.08594538235587    3.51488883272961
H         0.84619412438523    2.33493558661652    1.28398413852020
H         0.98939004325647   -0.16964551874187   -1.43055704626185
H        -1.07864783983509    0.80964014417138    0.41505566453696
H        -1.21515049112413    0.68451163401138   -3.26631823645800
H        -2.58284547996644   -0.90139922501724   -4.53848303191296
H        -3.79563154850608   -2.70366859400953   -3.36572881428640
H        -1.31893782725479   -0.96307616190769    1.26537411745685
H        -2.50668053848361   -2.76982607548297    2.36040884418117
H        -4.03717400831806   -4.22993597825594    1.09298142298690
H        -4.32680245362927   -3.89107066447647   -1.33204048909950
H        -2.64709391793541    2.32102689969685    1.60291791852786
H        -4.32398325585536    0.80180252760124    2.56020683776245
H        -5.92208251423638   -1.70347566959906    0.92400451293504
H        -7.17851061556835   -0.46936308849728    0.88240150475495
H        -6.17470559279903   -0.65983149582272    2.32685483319558
H        -5.84418551057833    0.01005888002805   -1.34373913476974
H        -4.16613004481301    1.52968962324518   -2.30631629510220
H         0.10997916919265    2.69571480920800   -2.86719793782953
H         0.43840165221491    5.31671397640625    0.14706601657981
H         4.13579442498741    2.59049184019509    0.95302279459280
H         5.81014798810063    0.95588996059586    1.72288139487069
H         5.92110830021549   -2.18235063608970    1.21824954956757
H         7.20670158558501   -0.97481925607305    1.22367059391387
H         6.90951753553926   -1.95267310076878   -0.22181506529997
H         4.90248563438793   -1.53901598428368   -1.61371518899027
H         3.21997049728972    0.07947719214398   -2.37185416447934
