66
 energy: -120.823884298711 gnorm: 0.000603847237 xtb: 6.3.3 (4ae9cef)
C         0.48293092189403    2.67781941922728    1.14395780496939
C         0.85708938414619    3.96794675829425    0.90301577530996
C         1.55438379546057    4.31249236606445   -0.27300124263841
C         1.95533287876807    5.63498666365608   -0.55321584923119
C         2.64147868882733    5.92843386300748   -1.69826334654008
C         2.95872676045014    4.91316851674282   -2.61449665079857
C         2.58419640430248    3.62178829807769   -2.37089345331007
C         1.87361719356962    3.28638501639807   -1.19937173175516
C         1.47037615316772    1.96554760997685   -0.92204436789524
C         0.77862768097223    1.65799753438890    0.22028813264997
C         0.33945713536020    0.24730109421150    0.50018504019609
C        -0.63137473231330   -0.33495225315191   -0.54163258840118
C        -2.08414078876157    0.04075533698855   -0.46650516974509
C        -2.59601639130828    0.90250828153044    0.46328324389990
C        -3.96331730990989    1.24935623661725    0.45630108731351
C        -4.50907050304973    2.13468909325203    1.40833642640979
C        -5.83914284106971    2.44977011868565    1.38665058800302
C        -6.68309714198654    1.89563016511914    0.41202260874982
C        -6.18256552584936    1.03628858398903   -0.52632652947555
C        -4.81585083132366    0.69217585237758   -0.53003778508768
C        -4.25993431549164   -0.18503751083879   -1.48546080253589
C        -2.93267317235893   -0.49255251351944   -1.46131570118491
N        -0.36297308766646   -1.77575127856591   -0.44454174679657
C        -1.20066615948490   -2.64915433929275    0.20400201594977
C        -0.77572791922966   -4.06385460362181    0.18218984743574
C        -1.16518765211113   -4.99597305607280    1.10442753100800
C        -0.69843100794582   -6.28474113053191    0.78278246407582
Br       -1.02667875086812   -7.80207266496905    1.85597436903395
C         0.01274659166943   -6.33100158922141   -0.37852488444452
S         0.13896830358186   -4.78564569547679   -1.10721140476861
O        -2.25092815122048   -2.32627807179671    0.71111466850932
C         1.07454799412479   -1.85837802028896   -0.36530678867504
C         1.66147041097014   -1.84020221299651   -1.79159227616610
O         2.71732775489461   -1.04417599081816   -1.90269149855380
O         1.21173394789421   -2.49167407870632   -2.68973678226265
N         1.45347334242534   -0.71045545072412    0.43076173248953
C         2.44478748678910   -0.59837704987829    1.35386907463808
C         3.51831577886276   -1.61004659907450    1.41046335338223
C         4.37133452051273   -1.68269992124760    2.47930960884774
C         5.34162373667583   -2.69180048024067    2.33184849590049
Br        6.65789688396652   -3.06233604166535    3.63215965820137
C         5.23981720655450   -3.37569685093672    1.15858671382547
S         3.93967749368805   -2.79329997518669    0.20808395691606
O         2.45896564010147    0.32994844743123    2.13936536518441
H        -0.02512699414273    2.42547156470913    2.06253882926328
H         0.63060781712796    4.74490882654838    1.61866212772476
H         1.71014711306848    6.41259359659931    0.15591349307796
H         2.94613953990760    6.94334590323619   -1.90735456602029
H         3.50214264732028    5.16320055474740   -3.51402054430231
H         2.82672898676425    2.83763442944398   -3.07451088810046
H         1.73812749362289    1.19192921577848   -1.62698445652491
H        -0.09439847177215    0.18654353879803    1.50641531969075
H        -0.26980520259737   -0.04139845813965   -1.54058765188903
H        -1.97044879138815    1.33967020227087    1.22472772056544
H        -3.85615085177868    2.55862099836727    2.15798177466918
H        -6.25119198884280    3.12719284082524    2.12034135939192
H        -7.73183124441658    2.15461254277115    0.41062713444315
H        -6.82835008933831    0.60688998619892   -1.27906861235015
H        -4.90570271062994   -0.60789066234427   -2.24156335469505
H        -2.51208165662674   -1.16407043907459   -2.19640261777567
H        -1.75615600586901   -4.76007337051981    1.97051774258911
H         0.46017130370609   -7.18843600238964   -0.84064804854307
H         1.39234435830991   -2.79868941795751    0.10227567673365
H         3.08962405445804   -1.07873323980547   -2.80025420116167
H         4.29327665793813   -1.03042421826294    3.33047562770156
H         5.85080622748030   -4.18172626901397    0.80410817286220
