66
 energy: -134.187346872582 gnorm: 0.000582581726 xtb: 6.3.3 (4ae9cef)
C         0.84604892278633    3.54564618083577    0.14483330799496
C        -0.05250203408095    3.97816357111055    1.26895337648058
F        -0.01676953424869    5.29635477558162    1.49520590098744
F         0.22934399551163    3.39607776312708    2.44896255225320
F        -1.35374174211375    3.68698981894313    1.02753838322694
C         1.58369309383007    4.51562539188900   -0.52324820210985
C         2.40123674294055    4.16470912948506   -1.57947889169185
C         2.47651208398525    2.84185691966953   -1.97872040510702
C         1.74037136293666    1.87810189183656   -1.31897395476591
C         0.92418636878561    2.20831531134521   -0.24282832944556
C         0.13375493318132    1.11336358915480    0.42688240665468
C        -0.95732195896576    0.53906476829241   -0.50009924394218
C        -2.31299172955243    1.14154286853965   -0.23880563650454
C        -2.95010608553658    2.00470101585517   -1.12989646662629
C        -2.29904051653486    2.40871672703619   -2.42328855802802
F        -2.01220583971376    1.38152085905114   -3.24050160368499
F        -1.12230961172194    3.04955192873142   -2.22448813402133
F        -3.04690915088111    3.25147335325143   -3.14594655489252
C        -4.19709967489000    2.53545776512056   -0.82322401636989
C        -4.81818658087240    2.21557853802920    0.36848076029850
C        -4.18996814767272    1.36850587992711    1.26405339187562
C        -2.94999061558256    0.84289763561673    0.95988764500378
N        -0.95403657386916   -0.88420272375646   -0.17635227426674
C        -1.88278785739360   -1.71367675619244   -0.74616984095029
C        -1.71057319269937   -3.15350036644166   -0.45731190278605
C        -1.76811408980419   -3.81594935903235    0.74156891020796
C        -2.00971173597907   -3.33774455603513    2.12896413006456
O        -1.61714438313041   -5.13714390961913    0.54037082074803
C        -1.46274338010835   -5.33590758772955   -0.77892457072551
C        -1.52622955005938   -4.15925222618530   -1.45024111944401
O        -2.77996109087020   -1.27381038071603   -1.43038607998856
C         0.29079464980042   -1.29217440999585    0.43063988744840
C         1.11116204522938   -2.17195907775237   -0.53768402508575
O         1.47295648085083   -1.49551823874408   -1.62442605770817
O         1.35521416810208   -3.33155434068088   -0.36114138245659
N         0.96085184015353   -0.05006498768061    0.72538721618232
C         2.23455462570093    0.06420915403001    1.19268803559783
C         2.93573925584723   -1.22466735322715    1.38938874099017
C         4.10339302719423   -1.58393095711154    0.76474559382016
C         4.90878572696342   -0.86709875824261   -0.25597271672860
O         4.49429338615204   -2.79820695432101    1.18852140279627
C         3.60418773622418   -3.21659078735755    2.10424491110539
C         2.62243676569792   -2.29609079128412    2.27547068010699
O         2.75408932928929    1.14119945659710    1.39324426611736
H         1.51457699328112    5.54600931892498   -0.21166779091899
H         2.97376108743462    4.92343166420454   -2.08948057330933
H         3.10846675488778    2.56052234360255   -2.80750235425364
H         1.80372819121240    0.84669104677724   -1.63093137138677
H        -0.32034879580035    1.46372968508384    1.35982286607579
H        -0.66051175946209    0.66588091339782   -1.54646090147574
H        -4.67938987059013    3.20054965100786   -1.52225644607163
H        -5.78742146875468    2.63032940741663    0.59630731212094
H        -4.66473184739569    1.11876147786318    2.20067771795837
H        -2.46093026123541    0.18190657064012    1.66034209579973
H        -2.31717703980600   -2.29651567520051    2.11596172427993
H        -2.79498378248277   -3.93341057256461    2.59107730070470
H        -1.11198712871096   -3.44865304597663    2.73802220337705
H        -1.31992175920388   -6.34434825983811   -1.11066111748473
H        -1.44993233413814   -3.99879335554057   -2.50535215616995
H         0.10970369468232   -1.89010758489158    1.33585555838930
H         1.94168967282914   -2.07034865513552   -2.25193284111603
H         5.96477106631340   -0.92389313307998    0.00004657148164
H         4.60053835930300    0.17424186342477   -0.28808631607580
H         4.77874187156624   -1.31366966635999   -1.24236322194976
H         3.77564344439648   -4.17267368306337    2.55553422821797
H         1.80255644680290   -2.35022008164646    2.96112715917850
