24
 energy: -25.259373882723 gnorm: 0.000473456191 xtb: 6.3.3 (4ae9cef)
C        -2.91155598136301    1.94654787193545    0.23826008745365
C        -2.37176657294375    0.79171933513966    0.57949549713537
C        -2.18153231515379   -0.35812460690015   -0.35787196250903
C        -0.70261523440759   -0.60202631342605   -0.69207348525853
C         0.10583651982030   -1.09518230757485    0.50713773341229
C         1.56953747435500   -1.40650621549130    0.16217986401396
C         2.55160512043357   -0.29497271646304    0.53745821095329
C         2.34384986144613    0.99969210234275   -0.23881508072900
H        -3.26963329350620    2.13100174279040   -0.76202046229518
H        -3.02666387754882    2.75615235067118    0.93928889899217
H        -2.02685633717330    0.63537132559609    1.59306239564305
H        -2.72305403715248   -0.15968332277387   -1.28520427712264
H        -2.59538130818943   -1.26446715739720    0.09302983765167
H        -0.64928776808291   -1.35420958059960   -1.48349223310170
H        -0.27331237773638    0.32112372514539   -1.08252119287766
H         0.07815310771778   -0.35084109687662    1.30376869623038
H        -0.37409807197178   -1.99984856301042    0.88893047433462
H         1.65545718892492   -1.61428260092510   -0.90664429133578
H         1.87638934627948   -2.31049448416303    0.69337419925145
H         2.46830082822865   -0.09043396162775    1.60761651621842
H         3.56591563226944   -0.65770208121835    0.35178768354250
H         2.37696580472453    0.81106289432610   -1.30982883005019
H         3.12717684461553    1.71394262029131    0.00676105417171
H         1.38656744641418    1.45216304020903    0.00627166627516
