86
 energy: -145.103625694371 gnorm: 0.000731987887 xtb: 6.3.3 (4ae9cef)
C        -2.09152571161405   -5.47540703768475   -2.92407131627853
C        -2.42625577917774   -6.30412201677902   -1.89262225036481
C        -2.23299499703784   -5.87760140007594   -0.57140713003940
C        -1.71159711750750   -4.64282338447993   -0.30467724292074
C        -1.34703693441537   -3.75755758831657   -1.34364677370961
C        -1.54721130110166   -4.19602106734153   -2.68325864857288
C        -1.19419296691342   -3.35600937827152   -3.75899487246161
C        -0.64585141012137   -2.12792234665742   -3.52883468667735
C        -0.43422311706468   -1.69227898933370   -2.21533169178387
C        -0.77906437834586   -2.46991039217825   -1.13743434887837
C        -0.51806745364474   -1.92269386404766    0.24691493477445
C         0.98010575621512   -1.76088121509736    0.57411344180004
C         1.35353094668252   -2.52055446574196    1.82802204676293
C         1.51012244290273   -1.86588536819299    3.02180232374021
C         1.81381005833763   -2.56084622197233    4.20072347863990
C         1.93914681376130   -3.91933995350019    4.18243792020686
C         1.77980287236048   -4.63621316709203    2.97833561027131
C         1.49547708424917   -3.93419990764040    1.77486952673216
C         1.36148272338700   -4.68234355533598    0.58475880406639
C         1.47291568275236   -6.04509060817623    0.59088582651082
C         1.73569008895243   -6.73521595432152    1.78248127956627
C         1.89404100794618   -6.04197417050556    2.94866211047511
N         1.17749564712952   -0.32596138989635    0.72105735768740
C         2.43270951558843    0.17459562572651    0.51104627570228
C         2.60210284641504    1.62983459091903    0.69037031496344
C         2.03145742351616    2.56539124489690    1.52354504228741
C         2.72354479852924    3.76750070146460    1.30044172304355
C         3.68226659657201    3.49381437008149    0.34875803796520
C         4.69027102619595    4.33474664322389   -0.26815323508642
C         4.75882542460694    5.69997123804892    0.01361768793481
C         5.73391001416891    6.48268786697399   -0.57323377713841
C         6.65119278607399    5.91980759432230   -1.44639202555602
C         6.58831848229747    4.56552914793361   -1.73298856825001
C         5.61667822247631    3.77563471112931   -1.15057578020667
O         3.60496451624898    2.20005293033351   -0.00391782495612
O         3.36447383219334   -0.55331080590918    0.24089590967885
C        -0.05493134867368    0.41338194578210    0.73537515250743
C        -0.04582942383072    1.52832097376762   -0.33584100058405
O        -0.60656108209964    2.64803967730268    0.10916321224272
O         0.38241070936498    1.39253042870910   -1.44555047672058
N        -1.06054945298164   -0.57692625604046    0.42023106256489
C        -2.40214799456597   -0.38501263990134    0.32794231748958
C        -2.88468086103969    0.97122071375433    0.70592943318262
C        -2.85416735584250    1.63136322164104    1.90623977878830
C        -3.58101996644553    2.82253321203288    1.71789583182750
C        -4.01349862249851    2.81247423784395    0.41271250453111
C        -4.80257014154405    3.76017457489666   -0.35040697710846
C        -5.23368436204351    4.95993840235914    0.21821378607466
C        -6.00184925706213    5.84182456633022   -0.51673126723346
C        -6.34994644257314    5.54577669018406   -1.82508818116586
C        -5.92197050126820    4.35938601498321   -2.39901463487794
C        -5.15419610043571    3.47210822821976   -1.67061730272244
O        -3.59200268636402    1.67924353709854   -0.19122688327210
O        -3.15647384022466   -1.27530162230053    0.00129148466018
H        -2.23523297821496   -5.78652222134903   -3.94928797891245
H        -2.83955434511096   -7.28352625570032   -2.08436492345694
H        -2.49990627363106   -6.53540336448904    0.24281602973777
H        -1.57783084464053   -4.35725621256177    0.72669794268279
H        -1.36391506738257   -3.70656142052976   -4.76711586599320
H        -0.36910692874942   -1.48178969835653   -4.34833637389660
H         0.00685702442827   -0.71963561415712   -2.06064505085142
H        -1.00189217891906   -2.55581670713107    0.99638746405431
H         1.61480031371610   -2.09410873201518   -0.25503494413691
H         1.41092446144596   -0.79118173017839    3.06476211315142
H         1.94113099420977   -2.00861233525332    5.12006008709049
H         2.16219483700094   -4.46615969021253    5.08717926696314
H         1.16643806121767   -4.17851053755853   -0.34764957698778
H         1.35683919728720   -6.59682045989278   -0.33016993050267
H         1.81863676819184   -7.81197876534818    1.76900362205168
H         2.10863782909592   -6.55991615593346    3.87274283348045
H         1.23861444566595    2.42093595868737    2.22811979954195
H         2.54030228669374    4.70249086200682    1.78827975694342
H         4.04712903766844    6.14495907312739    0.69146998152146
H         5.78030013166815    7.53825049768437   -0.34900228181138
H         7.41272204321333    6.53562929308284   -1.90119839604849
H         7.30201307512502    4.12370501116447   -2.41245619693303
H         5.56469986675738    2.71967100805577   -1.36641765505211
H        -0.26102476571965    0.87386097637929    1.71482665975464
H        -0.62968513770807    3.32811359454578   -0.58505100841535
H        -2.39401423378418    1.29644785669837    2.81395305870978
H        -3.76023254244838    3.57717322487847    2.45513307904886
H        -4.96839864276006    5.19616538208170    1.23682326810198
H        -6.33457989259791    6.76547736140289   -0.06636040129239
H        -6.95431395636732    6.23608922389115   -2.39426409767473
H        -6.19063341174633    4.12445677429163   -3.41831516142203
H        -4.82456688610122    2.54389547953535   -2.11184443955351
