62
 energy: -116.110493827879 gnorm: 0.000433999717 xtb: 6.3.3 (4ae9cef)
C         2.25498034110506    1.19152551760616   -1.49950876202218
O         1.54242121970001    0.18243915794004   -2.07542323596000
C         1.80095215273391   -0.13294292968407   -3.42446565382319
C         3.28516917266620    1.87844654363715   -2.13125079161978
C         3.95341301658333    2.89696713457701   -1.47401793379850
C         3.60561418001960    3.24551749426428   -0.18329270052434
C         2.58420364803238    2.56153894917374    0.45231583972479
C         1.90214055364608    1.54133923567347   -0.18699332373723
C         0.79956445924620    0.81066422127444    0.53329940938646
C        -0.56487492010147    0.88996662163688   -0.16955730446960
C        -1.57353038849143    1.64502358912794    0.65689000468065
C        -2.14301546271615    1.07238831997750    1.78122088828409
C        -3.06563882292186    1.77115606024333    2.54063736091706
C        -3.41658200519855    3.05522973642929    2.17077682685516
C        -2.84730974819602    3.64804364809627    1.05651789097632
C        -1.91727797782042    2.95379456810971    0.29164234091875
O        -1.28562425248544    3.46027314164598   -0.80393181482864
C        -1.65329807703813    4.73823242625565   -1.26306585106682
N        -0.95736566235104   -0.50095788064474   -0.35970962982839
C        -2.17689584987845   -0.79739878107299   -0.86065778948913
C        -2.53140000914756   -2.25353424758927   -0.85964671619854
C        -2.15054929885791   -3.18784773517759   -1.77513211062410
Br       -0.98996191885632   -2.94609893104507   -3.22354543344893
S        -2.85141354476444   -4.74498110888679   -1.47929123673788
C        -3.68293989608035   -4.11875839132899   -0.11020097696055
C        -3.43327956300940   -2.80129428037913    0.09133146086951
O        -2.96248982303279    0.04361702856995   -1.23625162524546
C         0.07435344443870   -1.44030377438658    0.00572081913402
C        -0.46035092716992   -2.48180878705368    1.00774948685848
O        -0.31053532152768   -3.73034633130972    0.56199595518267
O        -0.95107520333003   -2.21057120212402    2.06694007685903
N         1.07930221435024   -0.61818327459527    0.63033995213098
C         2.06985064694118   -1.03996573048859    1.45069002539194
C         2.27969687274362   -2.51908052320408    1.48986451436491
C         2.76666672259821   -3.26787990188433    0.45823139174981
Br        3.22158327574962   -2.66337656662461   -1.25338796068727
S         2.97718514413345   -4.93376120900497    0.88012803080252
C         2.41230298785322   -4.61088973376762    2.47211499342036
C         2.09617290198106   -3.30511521882818    2.65740390859938
O         2.75146418756321   -0.27997247830112    2.10237424366036
H         1.08985082392812   -0.91285789258227   -3.68911796600436
H         1.64398261267118    0.73450245357992   -4.07223525742507
H         2.81612390791524   -0.51776156020303   -3.55799690536625
H         3.57900171876058    1.62101578927793   -3.13596001223386
H         4.75306592570221    3.41582263847168   -1.98145575208093
H         4.12858359409391    4.03777510192698    0.32921374719691
H         2.31334046811604    2.81521570702795    1.46573140733453
H         0.73054787642235    1.21076759517258    1.55297506595533
H        -0.47762154008917    1.37464674616773   -1.14663838135136
H        -1.86517515685937    0.06674660694978    2.06287776305168
H        -3.50666749121295    1.31335077271459    3.41268623507577
H        -4.13930379505776    3.60902897344160    2.75150260801703
H        -3.13777687167906    4.65217557959799    0.79147128549363
H        -1.42945400727485    5.51208152794265   -0.52167989510355
H        -2.71424498663072    4.77982322655487   -1.52818992921882
H        -1.05183676939079    4.91245316988261   -2.15389604819422
H        -4.31856823241534   -4.76643509796883    0.45988971277000
H        -3.85853804988098   -2.21727555135053    0.88696596025652
H         0.47027278020094   -1.96138058134522   -0.88225170250477
H        -0.64730853982403   -4.37665421155677    1.20457556173153
H         2.35892506532287   -5.41156889610724    3.18250459959545
H         1.73117419807422   -2.89256447446326    3.58017333329932
