82
 energy: -119.676119595460 gnorm: 0.000398606354 xtb: 6.3.3 (4ae9cef)
C        -1.04423293381910   -2.67024134194742   -1.66878997260973
C        -1.41571258858163   -3.92834942452083   -2.04430217109543
C        -2.18084644044528   -4.74339232069021   -1.18415168980953
C        -2.57223269283790   -6.05131738960956   -1.53651757808085
C        -3.30656283584891   -6.81601235401600   -0.67380042435949
C        -3.68281161620030   -6.30765455832219    0.57951848830074
C        -3.32049748668578   -5.04280985238739    0.94909616071518
C        -2.56378158620623   -4.22792664246317    0.08138692723059
C        -2.17587866325166   -2.91991091031518    0.43379101302735
C        -1.43464671073070   -2.14902706112353   -0.42029208256297
C        -0.96346788709855   -0.78525853448017    0.00533660216387
C         0.51089154785256   -0.83269421855230    0.44264634131411
C         0.64610781000046   -0.84058567018105    1.94127342401360
C         0.96306843185619   -2.00096025055786    2.59530640140777
C         1.03970072481235   -2.04485794346918    4.00157024294131
C         1.35531641917887   -3.23047326553722    4.69763662957681
C         1.42242959639635   -3.24138737246632    6.06253173484311
C         1.17803519782547   -2.06862427115482    6.79464077362189
C         0.86962197898576   -0.90407775008120    6.14922502086266
C         0.79051422029486   -0.86002027812696    4.74196216230975
C         0.46425014283398    0.32025027861600    4.04222655023573
C         0.38588838759332    0.33011908597517    2.67936718095986
N         1.11273285466798    0.33877721208683   -0.19002425223780
C         2.45917810741321    0.52757303953495   -0.06931720535913
C         3.02995262099529    1.73689712731816   -0.78849139719986
C         4.55049780380409    1.78414887679245   -0.65537724561933
C         5.14646842053036    2.99100992695972   -1.37344808195515
C         6.66647524160890    3.03742602024292   -1.23880854433085
C         7.26418315815765    4.23552248147776   -1.96613700187730
O         3.13070706757400   -0.23495598081894    0.58653562624446
C         0.19401514618316    1.02369159598539   -1.06683008081913
C        -0.15127129350661    2.42640962386572   -0.48942782551777
O         0.33202877690712    3.48036985518814   -1.16314770787671
O        -0.80238849947955    2.56489529314626    0.50021672580194
N        -0.97692436678577    0.18593840112620   -1.08265708431741
C        -2.13423355845219    0.41452542947793   -1.77362846041675
C        -2.05502458671775    1.51441856923588   -2.81919069179346
C        -3.41552111979379    1.78036937752575   -3.46333274983024
C        -4.41933157405069    2.42523081084990   -2.50731986850432
C        -4.03080946346951    3.83259246297601   -2.05620297732212
C        -5.16528152038315    4.49702887445485   -1.28545902089721
O        -3.11524578235650   -0.26408828300635   -1.58139235248513
H        -0.45304890467162   -2.05613668558777   -2.33363282757319
H        -1.12353023207158   -4.32087616288817   -3.00808200317379
H        -2.28009101255107   -6.43868198912029   -2.50243861370964
H        -3.60313377833199   -7.81755445944326   -0.94943855001768
H        -4.26235132137706   -6.92666860838890    1.24877735185307
H        -3.60806281288070   -4.64590822112044    1.91206722159689
H        -2.47348338239061   -2.52984256250990    1.39661779797261
H        -1.59351373872404   -0.41678702648205    0.82535759336745
H         1.00219620640572   -1.72832676337486    0.03802705852481
H         1.15899737949250   -2.90461520623769    2.03568668800638
H         1.54311354205587   -4.13026258470570    4.12940810508368
H         1.66382627037139   -4.15292866439591    6.58962073031617
H         1.23574624348548   -2.09626211180169    7.87307221118707
H         0.67970069428576    0.00141775457712    6.70804731713902
H         0.26992406440319    1.22192518462803    4.60499436149934
H         0.11737884031057    1.23706542930681    2.15911697997416
H         2.75827620634227    1.69233551747707   -1.84832561893905
H         2.59799339265974    2.64035125263836   -0.35106193218858
H         4.80895568844621    1.81452040549052    0.40360068987989
H         4.97093767479385    0.86370386525385   -1.06380188959706
H         4.72095059881727    3.90878994308040   -0.95939742669927
H         4.88328226405518    2.95272733068436   -2.43445989079026
H         7.09111101699979    2.11669036729183   -1.64445801359023
H         6.93112876315714    3.08452987871025   -0.18070454957439
H         8.34576854194843    4.24809203554736   -1.85680319941844
H         6.86803738810222    5.16468023093266   -1.56205465429098
H         7.02788939500128    4.19603931476251   -3.02757354834949
H         0.61411939300902    1.12448040226247   -2.08641919919217
H         0.85268987142402    3.24858358569899   -1.94470462656248
H        -1.33900072368738    1.19977980414239   -3.58538605255391
H        -1.68645090130813    2.43206240042364   -2.36108270156634
H        -3.82403241464211    0.82856421164906   -3.80641584592481
H        -3.27317168914271    2.42740874670910   -4.33255794859330
H        -4.54252932771402    1.78123106489585   -1.63629445553213
H        -5.38391959670236    2.47769491629486   -3.01755043296555
H        -3.15022335279990    3.79455672704705   -1.41168628557750
H        -3.78265965108874    4.44038468573182   -2.93088621544274
H        -6.05097457669174    4.58865656058444   -1.91076471034202
H        -4.87359343816076    5.49096517828776   -0.95400756596443
H        -5.42361202939700    3.90504858293241   -0.41062688696810
