92
 energy: -151.480010880674 gnorm: 0.000329803876 xtb: 6.3.3 (4ae9cef)
C        -3.26607385313463    1.06260914455775    3.38341448809246
C        -3.68667390639497    2.22419360604288    2.80257475027246
C        -3.21889291829859    2.57171399842481    1.52779367089987
C        -2.36676016052095    1.74686624675738    0.84816376210236
C        -1.93634714857594    0.52040752586183    1.40145776865602
C        -2.38241235090422    0.19155558536356    2.71258334465280
C        -1.93973129218462   -0.99685371049407    3.32809131582195
C        -1.09698038511613   -1.84606279870402    2.67270467381041
C        -0.68833982368880   -1.54965203976461    1.36832224829894
C        -1.09144061104565   -0.40267199300780    0.72975254534781
C        -0.60495285343494   -0.18005275992353   -0.68381483322880
C         0.93284122178781   -0.02297682862764   -0.73166517855982
C         1.36354612423376    1.31053364111037   -1.29649044543651
C         1.24561144058243    1.51766303095766   -2.64946286697626
C         1.72614233196660    2.68949117250269   -3.24677951535983
C         2.34704675024583    3.63945027983038   -2.48766986848434
C         2.45364079424725    3.48354385392166   -1.09052362349173
C         1.91947136597777    2.32138992218196   -0.46758991560513
C         1.97860830913776    2.23868983535378    0.94099672326778
C         2.58415090026181    3.21556176274607    1.68134134781582
C         3.15795584459983    4.33322054737633    1.05932711277583
C         3.08099340817588    4.46734401053485   -0.29738747829614
N         1.38453052292613   -1.12072714670455   -1.57000054470635
C         2.64094600618764   -1.29660847323939   -2.05612516939006
C         3.65104160909199   -0.38101530301475   -1.47947923722725
C         4.02176382216498   -0.25305365903913   -0.15805231669943
C         3.59527629568466   -0.97699967402403    1.02397830443732
C         3.71448983561662   -0.39042105646160    2.28540331094479
C         3.25499783640558   -1.05096148770670    3.40787999489306
C         2.67785823630629   -2.30533148355748    3.29312164770940
C         2.58151072402638   -2.90683033281163    2.04844966053802
C         3.03962356632117   -2.25413918575410    0.92022710680298
O         4.92627947645613    0.74623352640393   -0.03824679899505
C         5.15092993646998    1.25378083953057   -1.26740609854810
C         6.09972335278504    2.38829362765500   -1.39904670809527
C         4.40284169479695    0.58822829884683   -2.19261824343165
O         2.88100112174186   -2.15228021554080   -2.88503459472169
C         0.31729166133805   -1.99530696625469   -1.98814425524884
C         0.30228694099890   -2.16189023283897   -3.52253552491524
O         0.41007718280119   -3.42423541984220   -3.88072622808965
O         0.21470557240002   -1.22911977929626   -4.27374326455794
N        -0.87662715908458   -1.32894224356974   -1.53121309968383
C        -2.08039840601160   -1.65208635593018   -2.06341927548731
C        -3.21226209694308   -0.85784596618678   -1.52689422416563
C        -3.97308784842365   -1.08484844626279   -0.40135027643269
C        -3.93151463299378   -2.12659969235744    0.60452045409380
C        -4.65776727608405   -1.97440100256075    1.78692258730800
C        -4.61683174559842   -2.94979721314796    2.76288135700253
C        -3.85243484441999   -4.09000642236490    2.57801747740466
C        -3.13541098628929   -4.25270077253767    1.40392870342526
C        -3.17230780523737   -3.28246330540854    0.42154808477062
O        -4.89023645525257   -0.09532427691598   -0.27573003164335
C        -4.73286055010239    0.75776868392107   -1.30551683775257
C        -5.63932407174309    1.93097257591186   -1.39705725180349
C        -3.71308569815073    0.33618259500186   -2.10773738839879
O        -2.18645928648565   -2.52236707966887   -2.90513742241487
H        -3.60523408650451    0.78706199602289    4.37169126577343
H        -4.36918280039708    2.88269651204596    3.31921813435223
H        -3.53419791914638    3.50387132126460    1.08190062263655
H        -2.02054984982417    2.05397044906448   -0.12642061927139
H        -2.28200428836172   -1.22059515533959    4.32771375064301
H        -0.75060557911989   -2.75373674195485    3.14186071857723
H        -0.03923713353406   -2.24348617839103    0.85590203119311
H        -1.08001052948973    0.69718394983012   -1.13037000480077
H         1.34028761134311   -0.16342588629074    0.27431427198414
H         0.80922254033857    0.75324933090664   -3.27633074388662
H         1.62309928759913    2.81584082088540   -4.31381565555002
H         2.75936989560091    4.52884661934419   -2.94212335581514
H         1.52638538556781    1.40305190316448    1.45348870204957
H         2.61896303032133    3.13079417401071    2.75763834033784
H         3.64472869542601    5.08749060856756    1.65998404752361
H         3.49555805641824    5.33614741105810   -0.78934386387035
H         4.15942066030560    0.58969094983026    2.36562736839274
H         3.34462225017542   -0.58510749928690    4.37825522913847
H         2.31546434730160   -2.81707267625830    4.17206467850355
H         2.15413806362858   -3.89491153742133    1.95866746902802
H         2.98734325780477   -2.73499251037564   -0.04472577621226
H         7.08109278240808    2.11152787691134   -1.01623139272815
H         5.74097202841005    3.24204097180543   -0.82451461624899
H         6.18813904404244    2.67071864675369   -2.44318043078110
H         4.36339848537773    0.76551015087230   -3.24699243389739
H         0.42096092071771   -3.00100444819983   -1.54533004052417
H         0.40199526937029   -3.51047364757017   -4.84702873006152
H        -5.24794012895325   -1.08199125768741    1.92915958466063
H        -5.18387578966433   -2.82107823332436    3.67337829602271
H        -3.82088862837658   -4.85208565614012    3.34265510108110
H        -2.54754043485315   -5.14571301543601    1.25032560555595
H        -2.63071876754211   -3.42759437672650   -0.49914908837167
H        -5.65891483890808    2.46258524124515   -0.44701846194480
H        -5.29875200359927    2.59969028899964   -2.18164370781482
H        -6.65571433710361    1.60890992107709   -1.62318561731279
H        -3.35776621678535    0.80126869006247   -3.00472360190337
