84
 energy: -123.954613940987 gnorm: 0.000280586765 xtb: 6.3.3 (4ae9cef)
C         0.23652585574693   -3.51818254004019    2.26343816807884
C         0.36548568214784   -3.80212267838822    3.61172148685865
C         0.75730472227618   -2.81242127373757    4.49667681093387
C         1.01614630227958   -1.53511027276648    4.02912814529312
C         0.88191280824059   -1.24988719134163    2.68249207132057
C         0.49491556689246   -2.24056892268509    1.78857779855903
C         0.34342013159752   -1.92876988010347    0.32016806213188
C        -0.91401085277039   -1.07927518116175    0.02894112124281
C        -1.84394044386518   -1.76860759632403   -0.93718567208671
C        -1.46422052037080   -1.94685516098078   -2.26238344881120
C        -2.32390913583680   -2.56833007016986   -3.14929613773455
C        -3.56109830434262   -3.02045590670716   -2.72162346744592
C        -3.93364523536070   -2.86000881959534   -1.39857586342100
C        -3.07609833549068   -2.23939932501063   -0.50827167376816
N        -0.38367767198184    0.16183657277165   -0.51257678629743
C        -1.04492620976445    1.04703712583545   -1.29587213374385
C        -2.52838410083932    0.97684642462525   -1.27497131817124
C        -3.21372047577325    0.84451061945951   -2.47577616280546
C        -4.59171036409661    0.77610030696629   -2.45532854988843
C        -5.28484759445193    0.87331643271822   -1.25975327668230
C        -4.61823305859608    1.04953697152327   -0.05302050466999
C        -5.33825924752704    1.19622362708203    1.27916479684385
C        -6.86178390527865    1.16916974307990    1.13146823664637
C        -4.92666556449422    0.04041721212772    2.20183783776454
C        -4.94493492121061    2.53658540938289    1.91610284647869
C        -3.22791837027627    1.09026858522580   -0.08305609279034
O        -0.41945386719931    1.86708588910575   -1.94925345664467
C         1.06652910817658    0.19978286756619   -0.54229426778144
C         1.54093693087255    0.58348314374040   -1.96272037233914
O         2.31203270405829    1.66385610324198   -1.95391084883966
O         1.32502486633367   -0.09610335406099   -2.92946033973141
N         1.45933255422141   -1.13192225569157   -0.16788851367400
C         2.63937730024533   -1.75434634596442   -0.45081322295274
C         3.72749716532966   -0.85130728226201   -0.91833281355180
C         4.14568934124443    0.20166284779677   -0.11223767035992
C         5.15354120967936    1.06233463256145   -0.52086726028475
C         5.60317265204659    2.25327787879014    0.30978262946065
C         5.31095270079450    3.53415278864557   -0.48516549062621
C         4.87026349009367    2.34741256278577    1.65060063063323
C         7.10708668449266    2.13940058629055    0.59283184256666
C         5.74211101942143    0.82538826427640   -1.76173213051175
C         5.35505340445894   -0.24030359327227   -2.55276379652395
C         4.34853704070775   -1.09173520492421   -2.13465384892862
O         2.77633292491338   -2.94869844397740   -0.28838448292786
H        -0.05843393310601   -4.29288058144140    1.57156921077948
H         0.16619891532298   -4.80064914694528    3.97121015167268
H         0.86482473499135   -3.03567186462094    5.54772414915352
H         1.32521319910752   -0.75955868230544    4.71468750610932
H         1.08486592956466   -0.25153348179220    2.32238671798545
H         0.31944918417781   -2.86997908457046   -0.24244814134657
H        -1.44398894570418   -0.87775975208845    0.96933682458366
H        -0.50589795693299   -1.58374784639203   -2.60514980956588
H        -2.02631289037971   -2.69749701304366   -4.17896195252933
H        -4.23296946398790   -3.49952820273102   -3.41815400789515
H        -4.89503575121253   -3.21579889290996   -1.05878961249890
H        -3.36502198706274   -2.11326124344451    0.52485455805196
H        -2.66163931886717    0.78051941547616   -3.40021417633740
H        -5.13724680238112    0.65233322368353   -3.37893466386099
H        -6.36065314200864    0.81980838638495   -1.28791886703961
H        -7.20707547159222    1.98447082681546    0.50021128164775
H        -7.32206529130516    1.28422615348246    2.11068663414957
H        -7.19929438893475    0.22427954012249    0.71223145149013
H        -5.42768799258699    0.13275987459415    3.16309043693986
H        -3.85419655340930    0.03462504098282    2.37835322130186
H        -5.20885717397480   -0.91188291665741    1.75750453890649
H        -3.87863881953023    2.58565953208342    2.11730298383246
H        -5.20399018733041    3.35818666674287    1.25187299249014
H        -5.47417508202121    2.67280946495439    2.85678843857769
H        -2.66917287307951    1.23151059458949    0.83021209425753
H         1.43927993424731    0.97080583946581    0.15357306741835
H         2.55923613703841    1.90678555217972   -2.85969338719998
H         3.67098989952397    0.32446502925579    0.84765423263145
H         4.25149565805791    3.58845876756977   -0.72667978453943
H         5.58026066862277    4.40929528350187    0.10238785029701
H         5.87518992163770    3.56102971279753   -1.41323097065483
H         3.80263247098716    2.49104326845266    1.50081861877591
H         5.24720347760157    3.20176848586104    2.20937589054988
H         5.03368928213019    1.45530221166240    2.25110769422434
H         7.43884839726320    2.98151751251698    1.19653224147878
H         7.68608500280661    2.13251622026110   -0.32619843864171
H         7.31838218835732    1.22049158516350    1.13563243400192
H         6.52232465379238    1.47899794736189   -2.12175871909417
H         5.83907947995310   -0.40601619211226   -3.50410228336838
H         4.02935790343141   -1.92317353151208   -2.74331828759851
