70
 energy: -122.108615125372 gnorm: 0.000845083332 xtb: 6.3.3 (4ae9cef)
C        -2.43402095862711   -1.44124747816037    2.47661179760157
O        -1.45085353591954   -0.99826954654183    3.30880974099551
C        -1.72196968359868   -0.90519433870217    4.68618613741960
C        -3.66463786746927   -1.92347031480117    2.89760925318308
C        -4.59508157925066   -2.35597049982126    1.96739685290909
C        -4.30773854355685   -2.30964416352231    0.61837695383396
C        -3.08180736632941   -1.82526876246586    0.19099132129716
C        -2.13731891451933   -1.39306505959677    1.10263993964635
C        -0.77743115842007   -0.87835401054452    0.73019345594077
C        -0.22128986362094   -1.21429649933443   -0.66897533663675
C         0.35887961855092   -2.59667322935409   -0.77068330121555
C         1.53314934975892   -2.91961562242659   -0.11267462695410
C         2.07521484649886   -4.18982459884391   -0.19752747734878
C         1.43109415980937   -5.15150039599939   -0.95132821956520
C         0.25906685522107   -4.84831867005333   -1.62185601678161
C        -0.28736555725333   -3.57256593476672   -1.54380649802305
O        -1.43209735898830   -3.19270058125338   -2.17508004767840
C        -2.09184241909356   -4.12295349842061   -3.00001574962576
N         0.78473788940303   -0.16168500287318   -0.84433679666588
C         1.51168948781723   -0.04636143584910   -1.98290075334406
C         2.38868414732124    1.17375069656999   -2.02470392070314
C         1.85124186980772    2.42400413006815   -2.31866805507836
C         2.66538086684317    3.54483468898622   -2.34984803316815
C         4.01828534317300    3.43087284700950   -2.08999872065940
C         4.56183309532371    2.17537059388300   -1.81820577968946
C         5.94561209212648    2.04339082764449   -1.55218239267671
N         7.06323329860988    1.93699079632515   -1.32367644888183
C         3.74749045197438    1.04356349808067   -1.79274792721357
O         1.46626337954583   -0.85908558489062   -2.87801039365981
C         0.66731046791406    0.82833730678964    0.20389709268044
C         1.74921403146503    0.70335406656433    1.30003635062585
O         2.84386017896378    0.08418916748988    0.87481123773703
O         1.62273384473567    1.15764023006392    2.40080714172003
N        -0.63309840569342    0.58386805903361    0.76508413131286
C        -1.63977271772162    1.49140812287110    0.87338126833023
C        -1.24003263802325    2.91500772862615    0.60637182657656
C        -0.22910604564320    3.55097042387298    1.31329342845950
C         0.08166971044613    4.87822005688374    1.01848091859881
C         1.13888195286008    5.52141534918706    1.70509974520413
N         2.00642321385041    6.04793323342592    2.23734531497508
C        -0.62490387338832    5.57070084503102    0.03399132839967
C        -1.65026810561960    4.93623495129683   -0.64188235840621
C        -1.96104824536283    3.61713971225708   -0.35593548743184
O        -2.78345729273255    1.20742639770139    1.14784127132074
H        -2.58197228338175   -0.25762157046318    4.87975458247168
H        -1.89678208288077   -1.89078724202674    5.13059091499071
H        -0.83073057805610   -0.46270475408202    5.12892852623053
H        -3.91146070495465   -1.96225901940310    3.94667400623909
H        -5.55016614858597   -2.72690280693701    2.30875416836807
H        -5.03593676484022   -2.64221463556065   -0.10543674613383
H        -2.86921063051477   -1.79315653474872   -0.86436867312439
H        -0.06915184148603   -1.26819948755119    1.47727161764983
H        -0.98442386751156   -1.09138094310230   -1.44387773517442
H         2.04208696471952   -2.15861471801728    0.45863627029052
H         2.99425366132609   -4.42346029529079    0.31746458801669
H         1.84146915526965   -6.14724856926990   -1.02818517065455
H        -0.21904013248980   -5.61473124583014   -2.21053173874172
H        -1.44876613794682   -4.46157017368982   -3.81756633063510
H        -2.44605326995511   -4.98567143498226   -2.42687582780344
H        -2.94827542280263   -3.59216871296262   -3.41363180712279
H         0.79580993055219    2.51809396107721   -2.53485436019955
H         2.24098191568023    4.51140992001714   -2.57578796659412
H         4.65781713859811    4.30052640953262   -2.10148460333602
H         4.17056951952479    0.07176556873700   -1.58915717188724
H         0.75624752171877    1.84931396398087   -0.19111783894334
H         3.52092778824904    0.05227153204867    1.57265998342504
H         0.31140250010309    3.02901986033802    2.08892397395605
H        -0.37019091109736    6.59744014756231   -0.18335945191023
H        -2.21074253518854    5.47116401214624   -1.39355236990810
H        -2.76546880521311    3.11712926698900   -0.87407600688769
