70
 energy: -100.503318293020 gnorm: 0.000462434868 xtb: 6.3.3 (4ae9cef)
C        -0.65602660119675   -2.82602800016140    1.82545408270412
C        -1.15253964178251   -4.11486372637724    1.77080456869868
C        -2.29746250076886   -4.38764973082109    1.04085453915160
C        -2.94604895513254   -3.36214415067711    0.37739168418104
C        -2.44873000470913   -2.07136860470864    0.43159683179962
C        -1.29407311978809   -1.79392616886531    1.14696512912530
C        -0.71917101781533   -0.39779051538128    1.23642535372984
C         0.74669995390199   -0.32061954274684    0.72726583603485
C         1.66296512842196    0.24690465493490    1.78195611346030
C         2.62453251492698   -0.54960419805115    2.38859199234939
C         3.44540970486858   -0.02884955008637    3.37374421431554
C         3.31223594856816    1.29380099648668    3.75961407404526
C         2.35354665822339    2.09366524467977    3.15939280836717
C         1.53079397947218    1.57279920206013    2.17764499084781
N         0.65663773132973    0.53696096348767   -0.44194340365409
C         1.62344276988859    0.82158876533793   -1.35937252815983
C         3.02081103066254    0.37500666049852   -1.00085055528668
C         4.01441145429573    0.72226810246242   -2.10644046336996
C         5.46602446355940    0.49799267109606   -1.68918372906401
C         5.80956028321375   -0.97189733181570   -1.45495241724609
C         7.29256905255471   -1.16042352702678   -1.15813665625806
O         1.33649421390121    1.42896836218617   -2.37100734026494
C        -0.72112333805958    0.77814108809413   -0.80548221202477
C        -1.12862799802487   -0.24360493587251   -1.89058423116508
O        -2.22812513926201    0.13438096937692   -2.53913044318325
O        -0.53664261193201   -1.25988254727887   -2.11178103483214
N        -1.43573088604376    0.56485785391568    0.41898336929067
C        -2.51369258651651    1.23871900496338    0.91403198015733
C        -3.18949205032903    2.19551381687328   -0.04714179341066
C        -4.65190478589661    2.41858272064274    0.34240230244933
C        -5.50562271810833    1.15449009643001    0.22360438227648
C        -5.60541166739723    0.56404172949889   -1.18418267274347
C        -6.25818828723366    1.50822875609657   -2.18750603283345
O        -2.88273374655470    1.05071666724787    2.05277056249497
H         0.22870605944830   -2.61201053964393    2.40808819061306
H        -0.64756553101171   -4.90784798669035    2.30248159530198
H        -2.68591843854612   -5.39412187473993    0.99686139933791
H        -3.84650575961799   -3.56378932277154   -0.18399582473618
H        -2.97712322233622   -1.27785522385031   -0.07565828980166
H        -0.78956159152661   -0.06521404483688    2.28034472746162
H         1.08722286863352   -1.32184972112723    0.43192794368093
H         2.73473651172588   -1.58103734786294    2.08452587870083
H         4.19128381463010   -0.65654949930048    3.83825341037357
H         3.95369638796317    1.70090741083191    4.52671697572691
H         2.24562628916262    3.12539121135045    3.45887169477688
H         0.78283963409970    2.19553459594344    1.70919891886631
H         2.99915547392860   -0.70193908924412   -0.82504328669251
H         3.31365915379678    0.86183462732772   -0.06763088952121
H         3.78597450522367    0.12664273569990   -2.99180195239824
H         3.87274209823675    1.77023792114778   -2.37667618714046
H         5.67328026560375    1.06611877948401   -0.77859978319373
H         6.11692739038437    0.88735173369030   -2.47539163282620
H         5.54131089593754   -1.54899148807441   -2.34272295867662
H         5.22772933506266   -1.35805507923893   -0.61596138865128
H         7.52111932980185   -2.21096982397863   -0.99353189972318
H         7.57639576216145   -0.60350595947701   -0.26754658074944
H         7.89688311596711   -0.80453061281121   -1.98973259765918
H        -0.84469757633387    1.78906854413907   -1.20908365929107
H        -2.45756847547603   -0.50544660035629   -3.23400572788700
H        -3.12236246809330    1.82191441625746   -1.06690667184122
H        -2.65291259712260    3.14788211884521    0.00262879073441
H        -5.06892652789026    3.21194379611410   -0.27913922137971
H        -4.68407494256326    2.74942747740411    1.38184650170726
H        -6.51341045182302    1.39224216800522    0.57245673654364
H        -5.09737580303671    0.39853617877019    0.89744491397675
H        -4.61475395879449    0.28342830451193   -1.54634992619693
H        -6.19943154661538   -0.35149177619658   -1.12276120543739
H        -6.41134745066161    1.00309812532034   -3.13886979172148
H        -5.63531421141150    2.38067946097611   -2.36656418994679
H        -7.22522657014270    1.84399358787229   -1.81932131430936
