54
 energy: -101.651045882667 gnorm: 0.000841349285 xtb: 6.3.3 (4ae9cef)
C         1.31561227773427    2.04065343623933   -1.70237622513151
C         1.78614781334905    3.30635616398048   -2.00069808130946
C         2.19920960757957    4.15018175705879   -0.98337881568254
C         2.12807469261070    3.72979024093194    0.33390760377359
C         1.65762217667079    2.46337309402833    0.63436095769741
C         1.26090663502544    1.60695720072972   -0.38318236002638
C         0.76639390138616    0.21719846808360   -0.06934433108470
C        -0.74914950392490    0.06914357713365   -0.34816907797994
C        -1.53275689328303   -0.05596795147907    0.93377536340935
C        -1.38960643581652   -1.19122567922614    1.72471084611603
C        -2.11563630420746   -1.31408481405086    2.89517687526223
C        -2.98150221212350   -0.30641129671231    3.28748613760419
C        -3.11318080006500    0.83160843077411    2.51062025615135
C        -2.38843720696350    0.95874367556294    1.33827260190724
N        -0.85212279703518   -1.12255545880046   -1.17642279703508
C        -1.91805798038825   -1.94953586124173   -1.29001338199578
C        -3.23135290104855   -1.40242077150453   -0.85812950844519
C        -3.84386056166898   -0.29133375374324   -1.36082076530412
Br       -3.20905711944185    0.85053282018033   -2.70489673798520
S        -5.39609554479833   -0.00529932877258   -0.65218617788039
C        -5.22302880752961   -1.40945270999892    0.32204459622875
C        -4.05192267789357   -2.05266730210290    0.10051220883859
O        -1.80379537923744   -3.07127268517716   -1.74468838163578
C         0.43455370270906   -1.62486994801110   -1.59947430256291
C         0.61536992483475   -3.09551372827914   -1.15734082830091
O         0.89327707652038   -3.88807805492081   -2.16642574321067
O         0.56768281210014   -3.42079295829122   -0.00014954103358
N         1.38727097231530   -0.78186026586848   -0.91967487765280
C         2.71254825865949   -1.03080965646973   -1.03756619237057
C         3.58718432659494   -0.11917470027298   -0.24141124227092
C         4.41638412230065    0.81137679363756   -0.79464965349242
Br        4.58696265846112    1.22573702971598   -2.60937365438405
S         5.32798440306867    1.68090999224667    0.39110115155326
C         4.61013026112659    0.74858580916770    1.64295968053691
C         3.71819514973558   -0.15727006141961    1.17034178432133
O         3.14459042074411   -1.91771353007827   -1.74073582493602
H         1.00447218700733    1.37961708215640   -2.49794948910040
H         1.83986854098505    3.62773384905634   -3.02921520228651
H         2.57749891957008    5.13342946344430   -1.21765902207100
H         2.44561834458401    4.38585067212985    1.13042431494738
H         1.60626215668269    2.13283042974406    1.66213227061419
H         0.96548905967666   -0.01420111887261    0.98561884753386
H        -1.09291335421089    0.94556008962967   -0.91332261882963
H        -0.72549555379543   -1.98564678066306    1.41349571935018
H        -2.00623139529004   -2.20087397366746    3.50114873897753
H        -3.55169178635321   -0.40771181351678    4.19868292427430
H        -3.78389671823599    1.62149401565277    2.81381901438323
H        -2.49188311225410    1.84646937149963    0.73029436690474
H        -6.00939569571141   -1.67763483990190    0.99827168780260
H        -3.75155543630833   -2.95689074085326    0.59601837530215
H         0.55627773213335   -1.57667761339525   -2.69272443351782
H         1.01697500019710   -4.80521602993067   -1.87382981231942
H         4.90116652351203    0.92202720114646    2.65958337428619
H         3.18289951971685   -0.85299623670444    1.79105038206059
