62
 energy: -117.761142204862 gnorm: 0.000229102207 xtb: 6.3.3 (4ae9cef)
C        -2.82109673871560   -0.20897433886247   -1.24539209053526
O        -2.02621148642107    0.87328578319203   -1.49261861361784
C        -2.40455557715369    1.76710995755924   -2.51665744584571
C        -4.03434333950196   -0.45172565637431   -1.87517856578442
C        -4.76603143854827   -1.58552480590608   -1.56629952619618
C        -4.30036863115647   -2.48956424387222   -0.63147343840976
C        -3.09761529657325   -2.24672919080114    0.00836451258073
C        -2.35307812096499   -1.11790464701554   -0.28306336910423
C        -1.02363638646920   -0.89564814614017    0.38711330414177
C         0.13713555984074   -1.05401233761603   -0.62047580110190
C         0.87111428795645   -2.35742246843730   -0.43005970676072
C         0.47146315582990   -3.44726143851835   -1.18745106068647
C         1.07940128396847   -4.68142975002876   -1.04808274554836
C         2.11264638666002   -4.82724102352138   -0.14257879574564
C         2.52639373986775   -3.75324364400525    0.62490236773260
C         1.90861932879013   -2.51356867651797    0.49930444121771
O         2.25029104847958   -1.42028415188765    1.24719260309643
C         3.41242492882271   -1.49049992673837    2.04389924092450
N         0.95016564744191    0.13739398741789   -0.44253105432247
C         2.05228591385892    0.30546264502288   -1.21129209066563
C         2.87613004356123    1.51710764025884   -0.96380735533410
C         2.60105076213369    2.84594070680385   -1.11895675356278
Br        1.05821272874393    3.74576862649117   -1.64704111754599
O         3.67195928701178    3.61221291012249   -0.87416024751480
C         4.67306656006176    2.77474689549938   -0.55238430293046
C         4.25393350785274    1.48476800854369   -0.60299340054592
O         2.37384023637617   -0.51117681151174   -2.04965719227482
C         0.43415349931235    1.00068976512699    0.59041249670861
C         1.36390207573103    1.01533498103620    1.84305983499115
O         0.87589025039455    0.41877377987661    2.92044058648636
O         2.42125879572894    1.57879815359327    1.84279414232514
N        -0.85685712534484    0.45914224529291    0.91726388652287
C        -1.93709193558958    1.18117042568992    1.34261509471741
C        -1.76365343610282    2.64438896112383    1.48216135142147
C        -2.74906080262332    3.53279280227584    1.12968847352143
Br       -4.40102793516804    3.25398989157511    0.34175254483956
O        -2.39144438934699    4.79409536851248    1.37915277085304
C        -1.16630044802746    4.74555077189323    1.93099226742330
C        -0.72681943418352    3.46261711195393    2.02080331664561
O        -2.99383694220069    0.64996668572559    1.61057124282065
H        -2.45408638303553    1.25946765589902   -3.48447258526515
H        -3.36543073476025    2.24166611776834   -2.30200536399555
H        -1.62435747853632    2.52659774524697   -2.54615074116118
H        -4.42213413428286    0.24295606143117   -2.60208824862688
H        -5.70875754980787   -1.75508807749906   -2.06398451291699
H        -4.87033616112959   -3.37392419916348   -0.39362350059932
H        -2.72831654159140   -2.94304693755076    0.74682873448935
H        -0.91240277798846   -1.62676872553057    1.20008511522780
H        -0.25215824108240   -1.03879002948579   -1.64580926840387
H        -0.33025977073921   -3.31844893106076   -1.89935451919930
H         0.75427145596055   -5.51676533249090   -1.64796811333703
H         2.60675088589606   -5.78009266924706   -0.02671269210921
H         3.33286346639679   -3.89218514947357    1.32668054277204
H         3.27845190171489   -2.17917444760237    2.88364145896781
H         4.28028600823097   -1.79387680597425    1.45223984741842
H         3.57082365535946   -0.48306087114979    2.42523189806891
H         5.61834147455627    3.21719793903552   -0.31183312233217
H         4.82269486454179    0.60166998555292   -0.40383995754769
H         0.34713933889133    2.03397486722662    0.23038585186752
H         0.01197063391685    0.00802056193476    2.74071466936542
H        -0.71871140141499    5.67668056230102    2.21334456029839
H         0.20105192455589    3.14409483296329    2.44835814208399
