60
 energy: -107.070456602802 gnorm: 0.000247478117 xtb: 6.3.3 (4ae9cef)
C         2.97545787699572   -1.68833888786334    2.09109892456755
C         3.80409672307401   -1.44264663045577    3.16902586234513
C         3.28231388320034   -0.90522568606850    4.33501583548909
C         1.93199078009754   -0.61547035100470    4.41177528896446
C         1.09935760857240   -0.85741695042645    3.33039455844569
C         1.61502921967791   -1.40012722444137    2.16161441098413
C         0.79847674273940   -1.64579359143792    0.91493990451371
C        -0.73056269862782   -1.51189500068516    1.04485160060903
C        -1.42209051149335   -2.41513693391941    0.05111832714577
C        -1.61291445611728   -2.02417206171262   -1.26689690123262
C        -2.20886775342382   -2.88341883053725   -2.17267413822467
C        -2.61679709149141   -4.14306338544122   -1.77114279395867
C        -2.42806242867204   -4.53974153994559   -0.45816333335606
C        -1.83370142843773   -3.68051023066529    0.44766559143175
N        -0.95954379217937   -0.10429356717220    0.73562432141023
C        -2.11665800589187    0.51942368261861    1.08312730739549
C        -2.25233948486325    1.92335046664740    0.58166688199425
C        -2.24669150089390    2.18391896088209   -0.78528794406044
C        -2.41719239918352    3.47623950603277   -1.25024775733109
C        -2.59178015231005    4.52158345054261   -0.35996371569585
C        -2.61299823287129    4.24060209449241    0.99469624783175
F        -2.79322369702635    5.25366309287295    1.86360490160331
C        -2.45732251047991    2.95705117805106    1.48371115270857
O        -2.98611501323183   -0.04896034668708    1.70564536868308
C         0.25593922065345    0.51125062888356    0.24657174620556
C         0.88056120713507    1.40418528063854    1.34303159651817
O         2.18169454768300    1.58827853301133    1.14544169742862
O         0.25781291462167    1.90404351745449    2.23410024381218
N         1.10183705510212   -0.60412976531991   -0.06805858163133
C         1.61617935912350   -0.93289329652449   -1.28782067548409
C         1.57518247646081    0.13872827432277   -2.32801277789792
C         2.09841915551488    1.40611394589898   -2.10050458482137
C         2.04272923580001    2.33603750199815   -3.12218376529502
F         2.54370077673563    3.56815504569356   -2.90217392931924
C         1.48345823995892    2.04774164199737   -4.35429420860701
C         0.97897103639440    0.77642230918556   -4.57095311909862
C         1.03002578436644   -0.17665231788200   -3.56894908952603
O         2.08124727805665   -2.03017885453099   -1.50722298460893
H         3.37635398835689   -2.10463483741351    1.17870343474250
H         4.85685655980966   -1.67268404321337    3.10140681756590
H         3.92653039156209   -0.71488648896362    5.18045180846008
H         1.51787997760976   -0.19428387364440    5.31543083021948
H         0.05307241197989   -0.60793460192754    3.41627696591400
H         1.08057706950766   -2.60731604974773    0.47393170580640
H        -1.09423610464796   -1.74074897947671    2.04957364828672
H        -1.30272200137037   -1.04088303793789   -1.59135397769229
H        -2.35589228308873   -2.56671465772635   -3.19495697803220
H        -3.08279776427939   -4.81244084195201   -2.47853603782246
H        -2.74720806165015   -5.52023647641943   -0.13792813065023
H        -1.68867729657157   -3.98996188759818    1.47240415423796
H        -2.13692818060425    1.37077079785953   -1.48898649504913
H        -2.41520862625537    3.67147021849453   -2.31192183742137
H        -2.71927383461909    5.53691932839316   -0.70017240068561
H        -2.47939471794278    2.76661158898588    2.54390687196051
H         0.08157564716541    1.15340388425684   -0.62673480661143
H         2.56386887831139    2.14538593092285    1.84405445921209
H         2.55965887549504    1.66139675302555   -1.15986574791393
H         1.45839046112067    2.80490490625907   -5.12170175595485
H         0.54898795390250    0.52857843128076   -5.52908383072138
H         0.65096669144482   -1.17343772197004   -3.73506916778505
