66
 energy: -132.530919823248 gnorm: 0.000662113815 xtb: 6.3.3 (4ae9cef)
C        -2.49177489169720    2.55969144345535   -0.07096681396994
C        -2.86421474427510    1.57422497056322    1.00506854872326
F        -1.83021827912292    1.06409151742711    1.69766471565232
F        -3.54449066292498    0.51222545220624    0.52759413114433
F        -3.66722087778747    2.11751660097307    1.93421402897224
C        -3.35620639006242    3.63983928961256   -0.23025198474107
C        -3.12440563284633    4.59691093031676   -1.19715069337534
C        -2.02246250302315    4.47609399582065   -2.02416286039178
C        -1.17525228203082    3.39587418596194   -1.88244927609585
C        -1.38934118007078    2.41704035191351   -0.91711920894761
C        -0.36800536639752    1.31168456895426   -0.84654076378201
C         0.68006726321971    1.52812389645808    0.26322331650861
C         1.91326580695825    2.21553278770299   -0.26654420997286
C         2.27405185183940    3.51097600655312    0.10636574542113
C         1.45122918948569    4.29827928898429    1.08880973578108
F         0.17272874999153    4.47025527782514    0.67154956057157
F         1.36348346707123    3.73258431987576    2.30155569799091
F         1.92431981359582    5.53568960091954    1.29186678045540
C         3.41310635880130    4.10408590174678   -0.42644040325756
C         4.19823778804789    3.41672435137257   -1.33187672977438
C         3.84473453210175    2.13330789763340   -1.71175533695886
C         2.71051671042239    1.54377274522160   -1.18793600996029
N         0.95793133443734    0.17193455982770    0.71569235588140
C         2.07317945266587   -0.13014398692521    1.43377402178761
C         2.18955735232888   -1.56031378182614    1.80405196334446
C         1.39231762960202   -2.30796528368067    2.61814694006517
C         1.86478316597119   -3.62644938495135    2.78749902840271
C         3.01656305006341   -3.87773104566652    2.10801211959532
C         3.79359472505435   -5.14376273773068    2.04412778331081
S         3.55787471803817   -2.46684018005953    1.25333949569285
O         2.90253232616524    0.70178829762445    1.72983678392816
C        -0.00898310432780   -0.78617094431802    0.23596911272088
C         0.70098136416202   -1.82303957787082   -0.66157046614853
O         0.43000441481032   -3.07457383678893   -0.31615817348470
O         1.40270765582618   -1.52036214827971   -1.58695380660320
N        -0.92495348084231   -0.00192616187717   -0.55955429540210
C        -1.84711974638295   -0.49532471583068   -1.45217795230801
C        -2.39466427698072   -1.83416570829150   -1.22889633616647
C        -2.98352994291807   -2.57719989737282   -2.21802407064830
C        -3.52156484445990   -3.79093415705264   -1.75800138633646
C        -3.37474538499395   -3.96815177328262   -0.41390322122359
C        -3.82772009034949   -5.11019756346243    0.42153807020870
S        -2.54409875007815   -2.63212897180031    0.30479176465382
O        -2.22212223645672    0.19171857609167   -2.38385932432819
H        -4.21443404230838    3.73056376554757    0.41734148058174
H        -3.80239525002023    5.42926309928443   -1.30162751800568
H        -1.82548596989797    5.21768816025813   -2.78283906294960
H        -0.32205568979189    3.29890582491244   -2.53681866395034
H         0.13740325227408    1.27061145448730   -1.82278205408784
H         0.24694748725626    2.08504077763635    1.09875523309594
H         3.68451905289869    5.10359615166648   -0.12439783045746
H         5.08432156989874    3.88222103109236   -1.73416760685070
H         4.45398105749008    1.58726004420658   -2.41561441505529
H         2.44681511807256    0.53863376723948   -1.48232474578828
H         0.51006650934885   -1.92510026871944    3.09906704207672
H         1.36274679157913   -4.35966170053534    3.39269307757185
H         3.25219472239919   -5.93867652642306    2.55101081515748
H         4.76416820466850   -5.02112320885496    2.52416501747291
H         3.97096966880973   -5.43758226547180    1.01047686846269
H        -0.52606827980045   -1.29705506541191    1.05752945783155
H         0.88214101051464   -3.70701934334734   -0.89989734820259
H        -3.01253488754908   -2.24469985152474   -3.23981941203258
H        -4.00972230990109   -4.50499735181312   -2.39697899782668
H        -4.51641098074256   -4.76934439059082    1.19374972773778
H        -2.98034181903130   -5.58263402703030    0.91758252724628
H        -4.33149926880794   -5.84847503458324   -0.19750596896449
