68
 energy: -113.088360569905 gnorm: 0.000539054435 xtb: 6.3.3 (4ae9cef)
O         1.00220131401926    2.08583037870903   -1.48528669009737
C         1.26371698699189    0.93314706402294   -1.17480344979241
C         2.60261864046377    0.32456992535144   -1.35433966529397
C         2.77856046194873   -0.88591526233279   -2.01921756401606
C         4.03766224502621   -1.42336465844813   -2.15719417120120
C         5.15129138420301   -0.77058464210224   -1.62214591977925
O         6.33928704758696   -1.40730040295925   -1.77793777337499
C         7.49989463484512   -0.81183495723112   -1.24727533210556
C         4.97992785412010    0.45616477935277   -0.98809182871667
C         3.71502184993596    1.00043346704597   -0.87305601278168
N         0.29187535045996    0.14124121278942   -0.65881245650008
C        -1.01619029309045    0.74161563452055   -0.48491957891304
C        -0.84327789067137    2.21901823635087   -0.06171568202197
O        -1.49401657364635    3.05092304199323   -0.86614160987251
O        -0.29079292488158    2.54200968747315    0.95541754196011
N        -1.63870700539532   -0.04759196125574    0.54519778714535
C        -2.69196995732626    0.33433653330135    1.32463395921505
C        -3.47375347410132    1.48753632649009    0.79882959804604
C        -4.09768644538078    1.42394740499530   -0.43846972748709
C        -4.83906171953133    2.48994014431235   -0.91500821246911
C        -4.95640899203747    3.64792728694396   -0.15306589426561
O        -5.63447812275151    4.76341557833173   -0.53165104389075
C        -6.26870678459688    4.77443568349652   -1.78808656410067
C        -4.34799725753110    3.70289344695744    1.10315035514262
C        -3.62730524679747    2.63016493862046    1.57860218458290
O        -2.97003324262323   -0.25970879872147    2.34469597626992
C        -0.79450986047986   -1.13953004043404    1.00795870792801
C        -1.49843704833795   -2.46767751106265    0.89941761475783
C        -2.26545960778015   -2.76654928759884   -0.21908404426903
C        -2.89579081717027   -3.99277821427725   -0.32692384369795
C        -2.75730804992630   -4.93455823625665    0.67854367748424
C        -1.98802202060756   -4.64412111497773    1.79212068559756
C        -1.36186460436863   -3.41527334650778    1.90302228041722
C         0.46466957173155   -1.07838444899362    0.11371236949293
C         1.72233706065554   -1.06717561476851    0.94402970557892
C         2.01765734866398    0.03342971385154    1.74046946037382
C         3.17305102919077    0.04719807618545    2.49935632251502
C         4.03486684786673   -1.03705073224537    2.47744842165311
C         3.73309249052968   -2.14184743735228    1.70108772711188
C         2.57873171241403   -2.15801673867048    0.93844828549239
H         1.92822201699425   -1.39748359124443   -2.44409647677446
H         4.19288248448412   -2.35812624378066   -2.67196751253727
H         7.42101432849810   -0.67794538864295   -0.16400714600393
H         8.31179386505653   -1.50291784962573   -1.46753376106730
H         7.70877147822517    0.15283289434797   -1.72009455882436
H         5.82054153691650    0.99598532953050   -0.58310248286428
H         3.57826958613782    1.95301632391880   -0.38496598126792
H        -1.57729676691505    0.72273139869019   -1.43341876863902
H        -1.33466320188161    3.96912937293807   -0.59728596402582
H        -4.02365690631543    0.52446457022285   -1.03222292768123
H        -5.31649567879600    2.40638181852417   -1.87811889068001
H        -6.72630246927462    5.75817521711918   -1.87817163147925
H        -7.04689132399511    4.00767065676286   -1.85200850192950
H        -5.55025953443026    4.63382821000439   -2.60146104754270
H        -4.46180146135375    4.60211695532538    1.68750141808685
H        -3.16100666419197    2.67226709431163    2.55067919705663
H        -0.53216709946808   -0.96130041575480    2.05894143705152
H        -2.37511929248029   -2.03114157389225   -1.00351161821463
H        -3.49732240601858   -4.21398707978841   -1.19650205192039
H        -3.25138091179387   -5.89121229202823    0.59527789670981
H        -1.88020300428634   -5.37439948558227    2.58026180669009
H        -0.76857737167837   -3.18465460473533    2.77533208568483
H         0.47238048698634   -1.94512819094647   -0.56151348422930
H         1.35248933208139    0.88539250586022    1.75215219934286
H         3.40125720377265    0.90782261548424    3.10982242545114
H         4.93857297803011   -1.02203225559565    3.06880314683706
H         4.39787962013856   -2.99258420898041    1.68463690580839
H         2.34437928397781   -3.01981893737631    0.33061369085288
