66
 energy: -138.776912224197 gnorm: 0.000358959603 xtb: 6.3.3 (4ae9cef)
C         2.29615376465995   -2.14804168609981    0.30112562351638
C         1.91998347538504   -2.91369618738631   -0.93732636603013
F         2.62143282814477   -4.04145423017599   -1.08741338019585
F         0.62450662505893   -3.27073551874137   -0.96900777675621
F         2.12447596983283   -2.20901780664599   -2.07237424948105
C         3.29382447446045   -2.66981396943401    1.11638293173014
C         3.65473620772238   -2.02244743175091    2.28257310056380
C         3.00714509482025   -0.85540946942306    2.64728996146346
C         2.01662105706083   -0.33495706115394    1.83662249985799
C         1.65169978311671   -0.95901135527816    0.64792378011748
C         0.55232190438058   -0.33306544159549   -0.17827045787867
C        -0.83515853893538   -0.52820873729159    0.48242987201125
C        -1.68189670906963   -1.54620901925148   -0.23855604889043
C        -2.00760080832680   -2.78852936982272    0.30481958479418
C        -1.50078065183373   -3.20143972492537    1.65864064823828
F        -1.95367924558208   -2.44367501286877    2.66736228823049
F        -0.14702262554883   -3.14039947224672    1.74387463034452
F        -1.81708635480623   -4.46384342132997    1.97240101642907
C        -2.80039326792638   -3.67831739851411   -0.40885151135287
C        -3.26770529928049   -3.34198251454958   -1.66523663488819
C        -2.93946688832799   -2.11596872211655   -2.21649156361193
C        -2.15177822972036   -1.22941724862076   -1.50779994934041
N        -1.45323418123681    0.78917869200589    0.39210668908366
C        -2.72595641351636    0.95358226274682    0.86187315259110
C        -3.23447787467714    2.35864250070177    0.87323757890946
C        -3.33013122125114    3.12236913603933   -0.28223296941153
F        -2.89442917025397    2.60205955613844   -1.45621312516912
C        -3.85436494526252    4.40027566392873   -0.27822762480277
C        -4.29840569611563    4.93330672192924    0.91973479359740
C        -4.22739158974084    4.18584934017518    2.08414807299333
C        -3.71131367077508    2.90284436305011    2.06008778524839
O        -3.40563738311427    0.01318414795952    1.20203343809949
C        -0.46369798754479    1.81854947929332    0.27064484089024
C        -0.19544622945114    2.52243081035507    1.64283668575318
O         0.66293826068395    3.51525104937128    1.59237985654929
O        -0.76208363741106    2.17186432104732    2.63813039679438
N         0.70442534568164    1.11489268254002   -0.23288054852633
C         1.74423777806600    1.78297543083829   -0.76006066833772
C         2.77336588058114    0.97371075072341   -1.47401651266607
C         4.00292883494482    0.68473183390820   -0.89676325115710
C         4.96626296462780    0.00423111713825   -1.61981050047149
C         4.72477042216858   -0.36678655895244   -2.93266858074066
C         3.51210081120258   -0.07286181171160   -3.53000352947005
C         2.54996285439292    0.58485693291570   -2.78899364367171
F         1.35239851325372    0.85178050692624   -3.34692359583011
O         1.83767600144974    3.00284447360839   -0.66577079048592
H         3.78071467464260   -3.59085228193155    0.83771666559304
H         4.42820318124219   -2.43742709138963    2.90908140968081
H         3.26453661245606   -0.35115867276642    3.56576900357725
H         1.50914682550344    0.56840871813537    2.13967905738878
H         0.53409499086972   -0.73142677975157   -1.19764013281269
H        -0.71404359949342   -0.78839145889789    1.54012699301105
H        -3.05054142555539   -4.63432085242833    0.02353940284164
H        -3.88622606548401   -4.03774326128982   -2.21031912472136
H        -3.29764221360321   -1.84647993686787   -3.19821996730447
H        -1.90867056781456   -0.26805902876227   -1.93575853697233
H        -3.91093129521733    4.95472436191382   -1.20161072869245
H        -4.70520735653966    5.93259987548347    0.93880714042947
H        -4.58013574803005    4.60250208210519    3.01452936352265
H        -3.65249327710904    2.30876540005378    2.95782912393880
H        -0.75094042865580    2.59587715046975   -0.45463584481197
H         1.11726704425605    3.58512378149809    0.70046836888558
H         4.19443525550808    0.99193617756011    0.12000477944571
H         5.91308086634732   -0.22798348129155   -1.15795178427402
H         5.48330694450225   -0.88717726613263   -3.49604077026022
H         3.29721335018673   -0.35304303916851   -4.54813536711082
