72
 energy: -121.664472239999 gnorm: 0.000804455964 xtb: 6.3.3 (4ae9cef)
C        -5.09253022056940    1.74125053007556   -2.27958306064570
C        -5.37840181494672    0.44354520528196   -2.59509125173026
C        -4.42164192889247   -0.55418409352782   -2.36553895477565
C        -3.20905703226633   -0.24590664127525   -1.81222894766826
C        -2.88818317069635    1.08172363049075   -1.45494935516246
C        -3.85048987142660    2.09388877713797   -1.71249865119946
C        -3.54834261033222    3.43687789550701   -1.40517926575183
C        -2.33783749869378    3.76664634057737   -0.87187252863887
C        -1.39093100920680    2.77069455697613   -0.59186697550343
C        -1.65322209948368    1.45101842551734   -0.84765337715365
C        -0.64417871114517    0.37103131420077   -0.56996139917535
C         0.69770618606245    0.75037153369465    0.09628854603602
C         1.72281178796100    1.30876101220111   -0.85476060223947
C         2.10307615445004    0.53165360435213   -1.92164783219246
C         3.00941064676296    0.99093027724648   -2.88327274958593
C         3.53044631808546    2.24767502087074   -2.77895416241329
C         3.19778892029331    3.07056256820547   -1.68444396374034
C         2.30125329007353    2.59650643293158   -0.68571257579720
C         2.06180197580898    3.43405194391964    0.42652692138701
C         2.63211890010302    4.67265071578566    0.52246902466148
C         3.47831919677486    5.15114426229718   -0.48705965648798
C         3.76057944250573    4.35874794529352   -1.56185750434932
N         1.11784033899017   -0.54095028293404    0.65986740983347
C         2.30116167807669   -0.67588054235484    1.31149964961615
C         2.55185061579171   -1.99401795831031    1.93891067364669
C         3.66132352292709   -2.76622251377476    1.71257902252293
C         4.79765575751046   -2.56707018309551    0.78012113999212
O         3.61584678307707   -3.87360881663710    2.47666839480356
C         2.49747808212496   -3.80777099649963    3.22075317723511
C         1.79812221313555   -2.67900344579664    2.93772829368052
O         3.10912380415905    0.22996156104051    1.35379741178366
C         0.04641686194570   -1.51046282219803    0.53767305274381
C         0.25925642485576   -2.48669172748093   -0.63149211921579
O         1.52420855173414   -2.87673156305281   -0.73506368894673
O        -0.62128662084578   -2.88502373571696   -1.34292773301920
N        -1.11939062840823   -0.69916094514697    0.31571785200991
C        -2.05922658421167   -0.49725138053992    1.29941641937061
C        -2.26134217115814   -1.69137854635837    2.15929339393857
C        -2.84768587391001   -2.87576619710425    1.79393843337388
C        -3.41834972691133   -3.32115548298155    0.49717341381744
O        -2.90726915729529   -3.69985401012837    2.85762312438145
C        -2.36594045791220   -3.05544276753375    3.90770593409071
C        -1.95823163896968   -1.81138629423638    3.54564221397211
O        -2.70017152679165    0.51836663755292    1.42027302661052
H        -5.81626318150830    2.52352540252345   -2.45999836962037
H        -6.33340551663808    0.17993554668264   -3.02588466654274
H        -4.64649356695923   -1.57704507569712   -2.63205419734870
H        -2.49523729898782   -1.03787204888797   -1.65167050422660
H        -4.29128364824285    4.19551833657621   -1.60567161494723
H        -2.09548608659915    4.79508053024722   -0.64846243388595
H        -0.44673177083895    3.07419498571013   -0.17140378622600
H        -0.41631807400913   -0.11564399391901   -1.53046464982962
H         0.51045185962194    1.42766160765245    0.93378595738139
H         1.70264877074547   -0.46661216851026   -2.02911251113111
H         3.28022069123571    0.34739853449179   -3.70742961394446
H         4.21605314534592    2.62541798994221   -3.52378612624116
H         1.44548532807732    3.09211054631317    1.24298085783996
H         2.43683630710703    5.28967358008480    1.38736004722357
H         3.91336819072769    6.13570406982519   -0.39880789786755
H         4.43005602907153    4.70203801116314   -2.33787466174162
H         4.67899575784271   -3.18375491449594   -0.11089095714546
H         4.83603590984903   -1.52188296680665    0.48704121451243
H         5.73058702933221   -2.84545569794065    1.26553714425393
H         2.31518397974781   -4.60877450920353    3.90872764763927
H         0.89233981701693   -2.35689794984617    3.41232076852462
H        -0.05583889600599   -2.12855151243389    1.43701643034025
H         1.63408542718539   -3.51577784374779   -1.45913962651018
H        -2.64092042062249   -3.40321435747502   -0.26097362394141
H        -3.89688430166823   -4.28827366172185    0.62666764848698
H        -4.15270861700648   -2.59821883367397    0.14542813131932
H        -2.33202120231367   -3.57755133021561    4.84263114185470
H        -1.50464776065381   -1.06586952112055    4.16608007767155
