84
 energy: -130.476905608708 gnorm: 0.000182136978 xtb: 6.3.3 (4ae9cef)
C        -2.00603505884518   -4.65170654076497   -1.23824569936385
C        -2.55844511394326   -3.84282271729638   -2.18958279923136
C        -2.46161593596024   -2.45097808302326   -2.05731541874715
C        -1.82655012857993   -1.89241795955820   -0.98225750222023
C        -1.25366437085582   -2.69718219691518    0.02820791221657
C        -1.34306249332087   -4.10971915441072   -0.11700794202851
C        -0.76634668805236   -4.95266650338864    0.85477148840020
C        -0.12557958497639   -4.42488230314651    1.93751381245587
C        -0.04663616942432   -3.03632813053038    2.09450856719410
C        -0.59807571751465   -2.17682403417623    1.17787267141718
C        -0.40554790421804   -0.70103699310385    1.39957459911320
C         0.58176507903526   -0.08301570158870    0.38589516286308
C         1.99646712161423   -0.08825644043401    0.90329509043665
C         2.40087456821902    0.90927384694551    1.75458108020918
C         3.71088412491044    0.96458866637475    2.24379199438593
C         4.61381020771763    0.00709527234876    1.88163956985844
C         4.23267904248571   -1.05632042346539    1.03877645465031
C         2.90145065829410   -1.12154936308821    0.54193597783614
C         2.55355260836087   -2.22135333236162   -0.27340517856878
C         3.46819673018322   -3.18732201326366   -0.58756390034353
C         4.78301561959462   -3.11155410958252   -0.10705886087298
C         5.15348172957265   -2.06720819528008    0.69069820824514
N         0.04597996472468    1.25083406848698    0.17904211830503
C         0.51690078256673    2.18818832740217   -0.67526387797242
C         1.85811669549945    1.89271955905372   -1.25959969637382
C         2.94662602028943    2.65294867785613   -0.85036021044205
C         4.20694415384866    2.38010955960380   -1.34368154385812
C         4.40565694973042    1.35888983138384   -2.26476254181267
C         5.78785926063183    1.03561099393064   -2.75225186800972
C         6.49159962622863    0.09952638252222   -1.76821473602931
C         3.30663530246130    0.62779088908934   -2.69498451083792
C         2.04161982423208    0.89104836213701   -2.20278438332758
O        -0.11310733069581    3.20755334447195   -0.88928225855727
C        -1.23342779072853    1.44818429419364    0.83669948209816
C        -2.21463717622431    2.15378116036427   -0.12095377712136
O        -2.33033400346479    1.48870137822860   -1.27207057755427
O        -2.82638323386915    3.14520497120791    0.14843421050052
N        -1.60577651241587    0.11380119911349    1.24456131924635
C        -2.80470772233566   -0.29438155090539    1.74892020988351
C        -3.91706616531511    0.67722975446159    1.53560977187440
C        -4.13751980701497    1.71899950128288    2.42545478214100
C        -5.16278641507307    2.61551521079058    2.19515578295869
C        -5.98737408351765    2.48472397287252    1.08552660097525
C        -7.04051314394189    3.51173291629273    0.78914873359695
C        -6.48959964485578    4.54972212419378   -0.19126318310033
C        -5.78142327296123    1.41684703621148    0.22120080044141
C        -4.75891262415186    0.51424432433421    0.44262825277930
O        -2.94285474975376   -1.37376673197728    2.28102050637287
H        -2.07027123278798   -5.72704218293284   -1.32630972363566
H        -3.06888086260665   -4.26521385744581   -3.04274535072103
H        -2.89524058497738   -1.81352297270896   -2.81457278884176
H        -1.77982287266272   -0.81828340430956   -0.91405042720210
H        -0.84457468030021   -6.02250722707457    0.72476712221860
H         0.31878267592058   -5.06705959053728    2.68302440940248
H         0.45782656901763   -2.63753852918712    2.96286566814744
H        -0.01099798741443   -0.55332232538541    2.41709444914288
H         0.52538534637077   -0.63278190123874   -0.55748222173871
H         1.70188859877780    1.68234953516327    2.03992608726507
H         3.99670859210311    1.77129272675399    2.90192217323622
H         5.63099129824803    0.04197615651286    2.24423804059988
H         1.54691681656368   -2.32580411634757   -0.64549715294400
H         3.17649936220888   -4.02132848332906   -1.20858165118477
H         5.49292883180074   -3.88230024258616   -0.36840603421103
H         6.16137533878017   -1.99916859979788    1.07449209508418
H         2.79850898068841    3.45230988611259   -0.13998622158152
H         5.04931638576275    2.97023042349728   -1.01288904691196
H         5.73507247689678    0.55639624350419   -3.73139775778079
H         6.36828125204897    1.95512185278611   -2.85182467577508
H         5.93780662725825   -0.83147526321063   -1.67060850755100
H         6.55159782986016    0.56176493876435   -0.78554007931569
H         7.49874798998384   -0.12546663592735   -2.11122703272659
H         3.44126947149091   -0.15752900879787   -3.42478776947832
H         1.19515812372810    0.32643994835274   -2.56644400901036
H        -1.11713075297029    2.12102877277343    1.70810213195591
H        -2.90824967883307    1.97821432887783   -1.87814606048839
H        -3.50039045182291    1.83143780678167    3.29061766984520
H        -5.31923252037128    3.43493550566893    2.88108253657012
H        -7.34179961871904    4.01064455489131    1.71187343247470
H        -7.92093556931930    3.03267083174028    0.35503282378490
H        -5.57636971858886    4.98857490670086    0.20272311765626
H        -7.21795644363995    5.33934783018903   -0.36123662300379
H        -6.25442355146955    4.08225501650731   -1.14452553500296
H        -6.42681915106295    1.29398531512577   -0.63734870872904
H        -4.59809611815048   -0.31420938681232   -0.23271007364609
