60
 energy: -126.190313045321 gnorm: 0.000329782193 xtb: 6.3.3 (4ae9cef)
C        -2.13168213454322    1.44655829724467   -2.02134681633052
C        -2.14169459506384    2.35716524832957   -0.82413637145286
F        -2.99961661398846    1.95236934610082    0.13616981975203
F        -2.52065116835902    3.60687693940605   -1.13079511574212
F        -0.95352689452405    2.49669583831737   -0.20636244718328
C        -2.86628822696600    1.87582495301036   -3.12368997603860
C        -2.94621706517442    1.10374458604331   -4.26505408793291
C        -2.29524003093627   -0.11562650302853   -4.30850702906075
C        -1.57853649510572   -0.54971451910427   -3.21144936237937
C        -1.48012064992935    0.21054488910326   -2.05047357082166
C        -0.64253742051919   -0.36742973329693   -0.93605892943526
C         0.76255451045644    0.25587492049315   -0.82844740069544
C         1.81919622233145   -0.64006517608733   -1.42802618840340
C         2.51065392909678   -0.31835679283284   -2.59671010584155
C         2.23197135314374    0.95869200913122   -3.34079019706640
F         0.93366304361349    1.05654488092398   -3.72134690078878
F         2.48636589362254    2.06990314415536   -2.63555120112295
F         2.94049641687531    1.06783963911640   -4.47250930020258
C         3.47482165241531   -1.18249987136038   -3.10308142311309
C         3.75520946774966   -2.37063042653462   -2.45558128111539
C         3.06602006632661   -2.70307150653903   -1.30209604627356
C         2.10505651207514   -1.84725874132129   -0.79866920446012
N         0.95623952064273    0.42019798986252    0.60721574876348
C         2.17841947311962    0.74960000445750    1.10654601854006
C         2.21763092520667    0.93644981704913    2.58268868270269
C         1.62401343023606    1.96114926531320    3.25539370301113
S         1.93318764487786    1.89162930224639    4.94045136374946
C         2.87447931233156    0.46770821568132    4.74343293260037
C         2.95200331015502    0.08112133341280    3.44588148392253
O         3.15452804579054    0.85969712517342    0.39947508226753
C        -0.24081949752047    0.17866428977286    1.37731501206988
C         0.00570590166404   -0.97036433058331    2.37973855267916
O        -0.18384666709926   -0.59246399310005    3.63741656338669
O         0.34478303956924   -2.07405298676622    2.05296144988743
N        -1.22143650684055   -0.20754681539970    0.39039137758135
C        -2.37788387353290   -0.89056112207477    0.65930041309469
C        -2.79556429804574   -0.88655981833972    2.08243338702886
C        -3.04711257168334   -2.04226995715572    2.76106302363604
S        -3.51563046369942   -1.75064299654683    4.38334205085431
C        -3.41350276642134   -0.05048426579502    4.14139463642397
C        -3.01813068188117    0.26525196305367    2.88518256613315
O        -2.99268811697560   -1.45003954704176   -0.22139651525909
H        -3.37462905809359    2.82668282197925   -3.08445522576075
H        -3.51629133946491    1.45462950340974   -5.11069854940801
H        -2.34957783554536   -0.73180905769643   -5.19235006695080
H        -1.08068086788432   -1.50657478602292   -3.24763916095665
H        -0.55066724267953   -1.44537858397742   -1.13477213284741
H         0.78727081098205    1.24704087097067   -1.29002110794444
H         4.00781124318758   -0.91814514634288   -4.00299606057872
H         4.51090022886457   -3.03100516435596   -2.85128761456519
H         3.27721740909087   -3.62945176351603   -0.79008249863984
H         1.57656225873076   -2.11070927287487    0.10575364542941
H         1.04402147347501    2.76799182246608    2.85367148978992
H         3.32397789041328    0.00822611462767    5.60091503822765
H         3.49867795318991   -0.77592634081558    3.09680646975677
H        -0.55891013245339    1.06925205849781    1.93793965036355
H        -0.02007655796324   -1.32285257541059    4.25786237798556
H        -2.96059142783992   -3.04561023307597    2.39473687757480
H        -3.65490859451157    0.61200734350067    4.94789678599426
H        -2.92438114399583    1.27116549413603    2.52300668517578
