66
 energy: -132.524252038387 gnorm: 0.000432320835 xtb: 6.3.3 (4ae9cef)
C         1.36812445494521   -3.66975580960693    0.04051757370401
C         1.22477702152221   -3.89321899549776   -1.44038850599270
F        -0.05423070528254   -3.75804609276463   -1.86381202718307
F         1.59434897883758   -5.12453036365313   -1.81806603034640
F         1.94807069317686   -3.04449192013169   -2.18579278440649
C         1.90196035599798   -4.69286358204505    0.81616852517123
C         2.05627909820328   -4.52718898867264    2.17893669490147
C         1.67540185662917   -3.33613104050299    2.77323775774850
C         1.14041374406622   -2.32214476341749    2.00384769371600
C         0.98490334587719   -2.46407532402434    0.62855642843058
C         0.37804864322794   -1.33237800169333   -0.15319177923590
C        -1.10829988113996   -1.11681934773256    0.20741848447324
C        -2.07109606938588   -2.02357114112955   -0.51678608144574
C        -2.62943351394997   -1.82401065302535   -1.78106449116108
C        -2.32934913614357   -0.62781597293968   -2.64139756176400
F        -2.68698267866291   -0.81484928530654   -3.92225648475912
F        -2.95701704990970    0.49547986444722   -2.25854702829712
F        -1.01619417269393   -0.32870930821577   -2.69199878257890
C        -3.51777843580360   -2.75615714540478   -2.31015644711478
C        -3.83856674151719   -3.90492551230086   -1.61641157025857
C        -3.26899111049949   -4.12912194097557   -0.37629171435457
C        -2.40760468067320   -3.19420464406509    0.16011660338353
N        -1.28942088074787    0.31939224533528    0.04138869046287
C        -2.47109722615306    0.88283807114273    0.44548979121676
C        -2.44577032884103    2.36379273059261    0.54168955063047
C        -3.02616120124376    3.20464754194307   -0.35122345163410
S        -2.77693007050948    4.85006754307207    0.06345099191319
C        -1.89600547569927    4.41072846358817    1.49133118673886
C        -1.33797504926096    5.44744572028256    2.39940426426026
C        -1.80512259176318    3.05978020760380    1.60460113081719
O        -3.42999613083953    0.18961820563241    0.70184621100563
C        -0.01087626185374    0.99336281776409   -0.05891174137574
C         0.18985180037213    1.64756804942822   -1.44900922131487
O         1.22392066601669    1.13146395267153   -2.09743496664942
O        -0.48605723091647    2.54669052869195   -1.85737571719735
N         0.95155727411481   -0.04253055738188    0.21718000026044
C         2.30104653092433    0.13952152655936    0.32492853283939
C         2.71770385674117    1.54688632203923    0.56724984953029
C         2.31396838765826    2.32994166059444    1.60499897132598
S         3.04190807706549    3.88588673132573    1.56201132429558
C         3.91601307613064    3.48461760176701    0.11628093783625
C         4.81262958034443    4.47964490893066   -0.52686469285600
C         3.64666958858998    2.21291826911886   -0.27526889666277
O         3.08537540668674   -0.78040921694308    0.26798059500069
H         2.20081380449140   -5.61704765906416    0.34682060888809
H         2.47773233086804   -5.32345504755362    2.77202075770522
H         1.79805397572133   -3.19634150113435    3.83644639404299
H         0.85663163879051   -1.38949786488989    2.46839354716101
H         0.49292505711168   -1.47835296160404   -1.23116529279165
H        -1.23899159970072   -1.33794152858164    1.27877514690362
H        -3.95388731261461   -2.57871964991950   -3.28073039792625
H        -4.52562507656249   -4.61750231380344   -2.04449198330703
H        -3.50141050927456   -5.02533674463114    0.17804406643437
H        -1.97818854849448   -3.37110079486489    1.13546109097213
H        -3.55521702523368    2.94708546941276   -1.24503172268018
H        -0.92174665724377    4.98102246467532    3.28925863138088
H        -2.11100435109487    6.15294319524063    2.69883541106381
H        -0.54901632869924    6.00888941979751    1.89914784824598
H        -1.33083628740722    2.56765413108035    2.43736897389843
H         0.05198743239582    1.81392321515999    0.66864871942821
H         1.31022311423745    1.51921100069004   -2.98351036302755
H         1.66097001016992    2.08156951544152    2.41849982738421
H         5.34000756629593    4.01903779492275   -1.35840267846924
H         4.23982133153980    5.32831676823887   -0.90080847280725
H         5.54207009569162    4.85888918508999    0.18738224939573
H         4.08267452537082    1.74241155120286   -1.13734117497230
