60
 energy: -133.344409616745 gnorm: 0.000412158533 xtb: 6.3.3 (4ae9cef)
C         1.99340899708519   -2.33029353632226    0.24938875302365
C         1.66766516518065   -2.96537598374081   -1.07643906741754
F         2.23405063022030   -4.16708912413344   -1.22822873050532
F         2.06812627175223   -2.23841849385945   -2.13823019584263
F         0.34387888768594   -3.15553326199177   -1.24688514666451
C         2.82437302494599   -3.02740698716828    1.12127749131449
C         3.11644966842469   -2.51477904859294    2.37101335211154
C         2.56007970359486   -1.31019018689938    2.76654350123304
C         1.74057157041797   -0.61233061841623    1.89959519940561
C         1.46097959427873   -1.09367521950814    0.62361937933720
C         0.56200585198364   -0.27636691471442   -0.27091022868950
C        -0.88333695438777   -0.26391367678832    0.28810045305619
C        -1.77346577175782   -1.34756742610810   -0.26564723051702
C        -2.37492084904017   -1.34440070164789   -1.52677285004438
C        -2.26712679188874   -0.20867726472735   -2.50794639460139
F        -2.54223802426599   -0.59274512657312   -3.76385640114799
F        -1.05035217269194    0.36519811923908   -2.58158941572881
F        -3.12464186697695    0.79549612720478   -2.24317067575222
C        -3.17834061104804   -2.41148731743041   -1.91978504106942
C        -3.37238407165726   -3.49607201995123   -1.08847791032979
C        -2.76678226001372   -3.51725345598983    0.15459971084457
C        -1.98403138549837   -2.45277998140764    0.55368512299644
N        -1.35369203904948    1.09066272666200    0.04354713282071
C        -2.59290371622314    1.43314477060905    0.50457744836134
C        -2.92351953497009    2.87785236491457    0.40678542682316
C        -3.21468925079456    3.63631262552252    1.50518574944386
Br       -3.11028112682558    3.08283738875375    3.28890057640425
S        -3.57529950350451    5.27579171210439    1.11151039248672
C        -3.37426493450468    4.92955087816768   -0.55658968162096
C        -3.02615833122440    3.63922071722482   -0.78477187520040
O        -3.35011471832149    0.60143485345214    0.95368687754287
C        -0.25764151248266    1.99633182297397   -0.20282028095681
C        -0.07943269570658    3.03758621301191    0.93023572232275
O         0.20587228319461    2.43163035617466    2.08490496821610
O        -0.31216771938929    4.20504686884291    0.81611766527373
N         0.90564673603881    1.13627532366825   -0.27832081090156
C         2.10812803837789    1.72750436664016   -0.08907116336353
C         3.30892987960002    0.88360622750975   -0.28499879098173
C         4.33793446226784    0.81371188838758    0.61269136602599
Br        4.40045571224867    1.60325341480541    2.30318519209145
S         5.62677450341199   -0.19884997412380    0.06764338260007
C         4.79758552033884   -0.48024287605113   -1.41191495432348
C         3.59739952235606    0.14727029464721   -1.46273409051438
O         2.17537474879600    2.90912191694366    0.19720300688272
H         3.23890752806693   -3.97556885541399    0.81700953186356
H         3.76849917257234   -3.05979583710214    3.03457714895069
H         2.76918419273983   -0.90688424711281    3.74479539672263
H         1.32164995184460    0.33366313137910    2.20966569733669
H         0.57005801864660   -0.65673124088794   -1.29594586098149
H        -0.84148717452997   -0.41507532944424    1.37759424948580
H        -3.65121891061310   -2.38878256899051   -2.88930001905689
H        -3.99619382439235   -4.31450196196666   -1.41108802033610
H        -2.90974402950634   -4.35628997797408    0.81760047874089
H        -1.52563823998681   -2.46943060370635    1.53111792604160
H        -3.52345726635041    5.70936601315648   -1.27594524050508
H        -2.87271740346103    3.22494775949616   -1.76298339505419
H        -0.39263421108861    2.55353066630398   -1.14312263238119
H         0.30165485340104    3.08435243889550    2.79804779035433
H         5.25346605566464   -1.09138053941308   -2.16440849036457
H         2.94176735705299    0.11518737149332   -2.31245549523945
