64
 energy: -119.531823798330 gnorm: 0.000338895556 xtb: 6.3.3 (4ae9cef)
C         2.87299372252235    1.69143320302980   -0.73242178265697
C         3.56692497323465    2.05433081317452   -1.87306245392773
C         3.02919877107738    1.80039162969119   -3.12297318099893
C         1.78799612099526    1.19539786352400   -3.22925284834408
C         1.09495313715870    0.83114432716314   -2.08980306254570
C         1.63822487308243    1.06536761957115   -0.83234534649132
C         0.89592112107145    0.63376746831892    0.40901794201560
C        -0.42267276991169    1.41860280331815    0.59506079008531
C        -0.69952406212222    1.92997060734036    1.99195180409569
C        -0.22000705722746    1.30763058171265    3.13738467980531
C        -0.55774931594265    1.79392163200216    4.38958575083030
C        -1.37925822962223    2.90034583813173    4.51241499687653
C        -1.86492009006689    3.52241613495233    3.37446736275412
C        -1.52688429211292    3.04092256101337    2.12307910754852
N        -1.45016999931450    0.45695445298806    0.19636317938676
C        -2.59078858244853    0.83967722386620   -0.42500006647097
C        -3.50579085894852   -0.27832626995844   -0.82701142334118
C        -3.23188355159506   -1.04834542954884   -1.95416831306386
C        -4.11487105983854   -2.03414102820860   -2.34984065341387
C        -5.27110903485428   -2.24269917947892   -1.60888555855069
N        -6.19745039700652   -3.27376894784191   -2.01775654264260
O        -7.17080148863895   -3.45977528503979   -1.32088100764929
O        -5.94211371714108   -3.88720400813998   -3.03024595594793
C        -5.55977511531700   -1.47367982006118   -0.48858663668465
C        -4.67531624552804   -0.48553925896281   -0.10362384198882
O        -2.85569794447182    2.00288180086722   -0.63521238358321
C        -0.97310341408019   -0.87214910050093    0.44449137282112
C        -1.33221117666723   -1.38628204761187    1.85413588655775
O        -2.64224982398767   -1.32009299384723    2.06821424951108
O        -0.53552819740581   -1.80675239779982    2.64040514781853
N         0.45865446069009   -0.75528765202948    0.30658729388434
C         1.17270699384749   -1.80208741495770   -0.18268122397746
C         2.64223730133065   -1.55017753504406   -0.29673064092491
C         3.39488164086678   -1.26676884761722    0.83925429837359
C         4.74553045376381   -1.00716769456395    0.72249828342711
C         5.33247219998158   -1.02922437964448   -0.53694256668346
N         6.73166371945692   -0.69950048529946   -0.66949924428151
O         7.34886834034611   -0.45390933926921    0.34397023273758
O         7.19962012877708   -0.67863558821632   -1.78685551498707
C         4.60028601161822   -1.35871164570225   -1.67068429649950
C         3.25406494710175   -1.63398115992002   -1.54343683170836
O         0.64508311669058   -2.84773988629155   -0.49564079397297
H         3.29532316530174    1.88793433611877    0.24234652000187
H         4.53046553362495    2.53274841897660   -1.78556982036178
H         3.57422743767036    2.07659733651624   -4.01236822282448
H         1.35973264382612    1.00583143324775   -4.20190254528091
H         0.12864730913009    0.35529200120189   -2.17623583655075
H         1.54505649344584    0.77290402769510    1.27894489160523
H        -0.47844202581818    2.26197156003603   -0.10239325356163
H         0.41187497904472    0.43507609583474    3.07413674322442
H        -0.17678308575407    1.30007793757877    5.27098384860204
H        -1.64069843317192    3.27506068545381    5.49060203879799
H        -2.50817435556823    4.38502616517368    3.46060072128173
H        -1.91579418033361    3.51728821662620    1.23593928784597
H        -2.33665499698891   -0.86886532604419   -2.53098525934985
H        -3.92633667959147   -2.64425750519196   -3.21989553143112
H        -6.47286357319291   -1.65744051570418    0.05657504590614
H        -4.88364395999994    0.13107341896370    0.75610729709681
H        -1.36629027294197   -1.61130958307612   -0.26908094927921
H        -2.86689449156007   -1.66062790580943    2.95050244412774
H         2.92061867038447   -1.26147686135318    1.80876396791723
H         5.35389829358660   -0.77753496410040    1.58411828594312
H         5.09518611554392   -1.39106718487973   -2.62890251340227
H         2.66513780400274   -1.89751195237269   -2.40762636750451
