70
 energy: -151.234495698270 gnorm: 0.000245912672 xtb: 6.3.3 (4ae9cef)
C         2.66879730939729    1.75254782666095   -0.18999829703417
C         2.94147618946506    2.00889187173654    1.26698723478821
F         1.90102734987446    2.59473032060602    1.89206791574855
F         3.18796817004739    0.88198759040570    1.97362992850956
F         3.99537209844076    2.79935502663958    1.47258918701571
C         3.49399528110694    2.35780343440597   -1.13098873807049
C         3.23780475677220    2.21060382391766   -2.48087827834203
C         2.14054036468983    1.47625728094862   -2.89583254470227
C         1.32358923889064    0.86530390175329   -1.96369440771024
C         1.58488274528099    0.97469435568717   -0.60142034606793
C         0.65218695670552    0.28204336839669    0.36260834897520
C        -0.74284943899756    0.95508848967492    0.35461099938149
C        -0.97474131410062    1.82804274042118    1.56256176777448
C        -1.04099917616894    3.21960705483092    1.49576451664791
C        -0.85570074806889    3.94524951802844    0.19121560172998
F         0.34316529223410    3.67038694099244   -0.37891942464866
F        -1.77199379776738    3.63575720741314   -0.73942117644728
F        -0.89439572209686    5.27480026068081    0.32212688163818
C        -1.25695983337107    3.96724286507065    2.64643267982111
C        -1.40599776828941    3.33969913443137    3.86867600614491
C        -1.33252374258704    1.96032764906704    3.94664787082374
C        -1.11653274623720    1.21674429894716    2.80252664738556
N        -1.67824476870609   -0.16554625195343    0.34784516722580
C        -3.01685434638115    0.08437908433912    0.36319144803602
C        -3.88649801674715   -1.12000759221159    0.17638813019936
C        -3.96754224737513   -2.10723158358598    1.15339179400195
C        -4.80076307931616   -3.19276529036336    0.96958551372890
C        -5.54499040406614   -3.28393179289065   -0.19947788409783
N        -6.39844939054157   -4.43192628577422   -0.40654197708686
O        -6.94277883209058   -4.53609745963038   -1.48352278868575
O        -6.51107834636025   -5.21826737122401    0.50727622870775
C        -5.48963191144099   -2.29340222445524   -1.17166585198257
C        -4.66463192210957   -1.20365272055568   -0.97437079043023
O        -3.46251975326755    1.19586997129094    0.53053807453663
C        -1.04442318653416   -1.40617493236361   -0.01047923348648
C        -1.46336288918227   -1.90882235532518   -1.41530751402186
O        -2.12848081723865   -3.05139817743417   -1.35589519781263
O        -1.28506581725260   -1.26228487617451   -2.41079854180308
N         0.37058561885566   -1.09072851932090   -0.03424205447239
C         1.16446191180066   -1.96016488234904   -0.70629853199663
C         2.62498830344371   -1.66954379805570   -0.73287369342938
C         3.35361711339843   -1.56865146117396    0.44734565772589
C         4.71001254811270   -1.31056122114803    0.39889352296127
C         5.32435727996474   -1.15040867444073   -0.83559503336420
N         6.73456678508117   -0.83400532692186   -0.89031123898544
O         7.34798429788660   -0.82684327484866    0.15262560726840
O         7.20802281499712   -0.58830953201357   -1.97768944489990
C         4.61434291233256   -1.29274618220187   -2.02178233422269
C         3.26450197501216   -1.57065854618213   -1.96631018782376
O         0.67704444889820   -2.94490132265088   -1.23181445498542
H         4.33043412696405    2.95364426026283   -0.80147152252265
H         3.88447824745801    2.68406158323810   -3.20220231194675
H         1.91501782796935    1.38092859182939   -3.94644121586725
H         0.47236997687427    0.28845743094724   -2.29679669610438
H         1.04872901110457    0.28245732455504    1.38343309129442
H        -0.87625563233511    1.52262588378398   -0.57200448986040
H        -1.30802133836863    5.04261249648451    2.58111040367202
H        -1.57657612648430    3.92835178407234    4.75609026408492
H        -1.44298706201316    1.46283498999198    4.89803710693625
H        -1.06422623985064    0.13946756883037    2.86451386675285
H        -3.39182193614049   -2.01694361115249    2.06196509392564
H        -4.88353727316499   -3.97353014338117    1.71001080816852
H        -6.09479527825096   -2.38926438216295   -2.06028916368986
H        -4.61176454425848   -0.41510435343983   -1.70897628115654
H        -1.25401073633698   -2.20907849306115    0.71293218852456
H        -2.31817067793526   -3.38864271413082   -2.24671697438932
H         2.86575519659063   -1.69435536036258    1.40061032227353
H         5.29533999635188   -1.21764944105878    1.30056023110083
H         5.13129312420785   -1.18864821225600   -2.96316884399730
H         2.69146759121444   -1.70061156408185   -2.87058964137591
