72
 energy: -120.027680050432 gnorm: 0.000458902513 xtb: 6.3.3 (4ae9cef)
C        -4.75391396416238    0.56544424106414   -2.37212451312838
C        -5.07771198845137   -0.71729148861834   -2.03503717185460
C        -4.13988441769702   -1.52070151484810   -1.37138781618408
C        -2.91426435559788   -1.02279636264347   -1.02709149454400
C        -2.55765931628133    0.31089351333930   -1.32593705534355
C        -3.49302510986902    1.10683660978566   -2.04363046756060
C        -3.14943375994257    2.42072952685614   -2.42163554851383
C        -1.92107927709720    2.93324167545849   -2.11763333209979
C        -1.01378616836900    2.17286111922526   -1.37094463380050
C        -1.32298993800818    0.90277586373593   -0.94896921413670
C        -0.34831594245237    0.18501204284414   -0.05156121558736
C         0.92268958735650   -0.28731098907790   -0.78645055388288
C         0.80616486938499   -1.71470009052925   -1.24998993764178
C         0.69011287983252   -1.94426788561154   -2.59756243925527
C         0.51437517894065   -3.23583212573620   -3.10792518165796
C         0.45048707612363   -4.30203991289977   -2.25855435945655
C         0.56191492605210   -4.11540979143711   -0.86570057990387
C         0.74112116366955   -2.80526447374168   -0.34039720822668
C         0.84268989678501   -2.66776504304351    1.06260383353378
C         0.77320290486283   -3.75352047052957    1.89088118534271
C         0.59673171895569   -5.04179534609844    1.36738522315843
C         0.49441046999912   -5.21422759171177    0.01691732790434
N         1.98142548716686   -0.05242438850678    0.18934671688917
C         3.26868742398988   -0.42208592034492   -0.10189699180239
C         4.27228954187212   -0.00674303262919    0.91159438339342
C         4.24066463834672   -0.34744630679210    2.22883191005759
S         5.59843590185282    0.26878778302449    3.08540218666514
C         6.22383456741191    1.01253725132899    1.64456644902845
C         7.48210474680847    1.80132954468412    1.68857612303696
C         5.41785423729029    0.76430909224125    0.58151334838235
O         3.54011402324554   -1.08608503636804   -1.07516327808392
C         1.62255002371672    1.05382836692430    1.03436082061429
C         2.23870005107127    2.39408717687271    0.51386853565162
O         1.96799439834692    3.44420659965650    1.25592619992812
O         2.91324784067786    2.42394616728578   -0.47520524448071
N         0.16978077767555    1.06812624818954    0.98769070894148
C        -0.57600353243492    1.78782946414524    1.84345538955233
C        -2.03972622389960    1.57982508849421    1.74295304794155
C        -2.69775717618471    0.43487457968154    2.07071997983431
S        -4.38700022191417    0.56396818545085    1.79467180207054
C        -4.21459597576904    2.19054667097196    1.21753404889690
C        -5.39653415094193    2.95303366508498    0.74121448594849
C        -2.91880746375772    2.59066254991285    1.27014768041794
O        -0.06505911043926    2.58346910934525    2.62952175221917
H        -5.45678064163428    1.18868256257130   -2.90670491619298
H        -6.04537507093159   -1.12441389182504   -2.28718564379038
H        -4.39101431048562   -2.54336503882216   -1.13332893992847
H        -2.20772769548804   -1.67721182361751   -0.54006143701377
H        -3.87324486975333    3.00925367728805   -2.96635764339042
H        -1.64522614988757    3.92970566556547   -2.42750397982144
H        -0.06110703448743    2.61091153730210   -1.10779407723827
H        -0.82904782702729   -0.67027115091620    0.42984372182856
H         1.10138001979366    0.35054394216682   -1.66408699019901
H         0.74118698340216   -1.11277969195156   -3.28488530998415
H         0.43296004779511   -3.37573918292157   -4.17524681664132
H         0.31661134502341   -5.30492250706447   -2.63760343042795
H         0.99288090327440   -1.69165224667169    1.49538532165828
H         0.85709090263618   -3.62324199898660    2.96043304107169
H         0.54660291783598   -5.88788551649857    2.03661739355002
H         0.36192995267895   -6.20150464536860   -0.40219503144155
H         3.52534004050273   -0.95769842131127    2.74508450130414
H         8.29593718167407    1.20815810592499    2.10373029856465
H         7.35857743495273    2.68467034372616    2.31516118352816
H         7.75168811461698    2.11973414040798    0.68490264764564
H         5.60147837989124    1.12603617892481   -0.41310876581091
H         1.96382680254432    0.91404629102611    2.07233495462954
H         1.29292380716148    3.24616435064893    1.97294369127442
H        -2.29904055151396   -0.47165552012296    2.48128341605371
H        -6.12965082709610    3.06878164239642    1.53871448702327
H        -5.08828313795088    3.93792802554936    0.40011740896309
H        -5.87744011366902    2.42736759029633   -0.08313514305225
H        -2.58051084198370    3.56490421786655    0.96776115561761
