74
 energy: -117.817969748534 gnorm: 0.000605969103 xtb: 6.3.3 (4ae9cef)
C        -1.33089804141763    0.19993305410632   -1.79732025497701
C        -2.09755722187596    0.58776491944127   -2.88054949845422
C        -3.34349331529238    0.02140183551896   -3.09031208969609
C        -3.81243642837150   -0.94886768935842   -2.22203391420635
C        -3.04504929734517   -1.34005522704403   -1.13986243870348
C        -1.80525104748448   -0.75876356462861   -0.91028243671995
C        -0.99681966851348   -1.14927213359628    0.30435239038661
C         0.27413815961308   -1.93387704600924   -0.06935629754882
C         0.66663936130645   -3.01225172547874    0.91785626673503
C         1.46975519153440   -4.05530685242763    0.46809127890835
C         1.90647000757252   -5.03341711594087    1.34264765239094
C         1.54402709393989   -4.98389387640204    2.67832072102048
C         0.74457334406378   -3.94987595100804    3.13206059150662
C         0.30791118050667   -2.96672891555290    2.25955898105520
N         1.29559291416254   -0.88930981342161   -0.11353134777989
C         2.38583704278043   -1.02044933975673   -0.91587035590420
C         3.41428447414806    0.02664874301717   -0.93633774770727
C         4.70189746411850   -0.22723600183180   -1.32523254995406
C         5.52673178327635    0.91653707941651   -1.34856175997410
C         6.97560478370818    0.93807288489162   -1.72457422026529
C         7.62519537621599    2.24751248188264   -1.27778572976781
C         6.76622560062218    3.43822336472756   -1.69744463260470
C         5.43372196630050    3.41995125982613   -0.94613039453006
C         4.85194411529035    2.05131002399827   -1.00652707322348
S         3.19940760468015    1.72290157848410   -0.61726077518110
O         2.51157800809426   -2.00568369108784   -1.62503971534215
C         0.97119932785619    0.08670436448504    0.88636823426643
C         1.64105990915469   -0.20296228800598    2.24087184680346
O         2.92154869301106   -0.53644542966069    2.07457366887205
O         1.10725039819320   -0.11074883595047    3.30712768393178
N        -0.46902375779427    0.02743693435569    0.98940676199236
C        -1.14945342979713    1.19829610577888    1.17134699463905
C        -2.61701503242858    1.10860141840272    1.12700580706190
C        -3.43472114359216    1.97839085575815    0.46750062796270
C        -4.80494108977457    1.65100608322695    0.57643687414797
C        -5.01780276455852    0.54727325348294    1.34670822607469
C        -6.34944457589091   -0.03476324770442    1.67066943415549
C        -7.38740394185420    0.49904450112329    0.68160651783830
C        -7.26353852697510    2.01541589014368    0.55191851033713
C        -5.92610809240501    2.38774219972691   -0.08673004271785
S        -3.53392221114745   -0.11403608567830    1.94611009136490
O        -0.56828133329096    2.25251583462817    1.34085718185604
H        -0.36455684661241    0.65485373132924   -1.63628067875301
H        -1.72249794542486    1.33865056427993   -3.55974840352866
H        -3.94569690854217    0.33441647345036   -3.93029122211271
H        -4.78079574242733   -1.39910643760562   -2.38341001823381
H        -3.41514773660560   -2.09278855071922   -0.45884798983242
H        -1.62285560563783   -1.74304259103352    0.97686321860065
H         0.19993047388088   -2.37059600884557   -1.07044718967749
H         1.76408895290028   -4.08280700729508   -0.56979909110538
H         2.53109427473043   -5.83625720997587    0.97993968197918
H         1.88350568521832   -5.74743480293606    3.36275816976147
H         0.45814916847248   -3.90031866238856    4.17215774843258
H        -0.30599319811963   -2.16751921341362    2.64557503644776
H         5.03390326619809   -1.21791059406051   -1.57789291966425
H         7.48625251704006    0.08401672227568   -1.27432482837266
H         7.06109565587768    0.83452170523813   -2.81096301818776
H         7.73174766683509    2.24878168271425   -0.19099240764696
H         8.62181107900901    2.33130620298279   -1.71405004490025
H         6.57878401798400    3.38433517354709   -2.77154292038388
H         7.28876163116104    4.37362404457523   -1.49199115923163
H         4.73917356435659    4.14698729597870   -1.37245304525926
H         5.59342123283674    3.70033660178705    0.10046922793071
H         1.26205357806558    1.11295059703969    0.61374012053205
H         3.34627666495112   -0.70193160118279    2.93210730869410
H        -3.05683786149320    2.81233257867478   -0.09594610078458
H        -6.30670118428498   -1.12555041962667    1.63425466669747
H        -6.63170076298323    0.24539380407032    2.69115815293724
H        -7.22471498039030    0.04133391474145   -0.29623596294943
H        -8.38858627289737    0.22878195743069    1.02073060613461
H        -8.08246848123128    2.40888200493954   -0.05247808270981
H        -7.32990455943175    2.46604720880860    1.54424308010337
H        -5.75469781505122    3.46389152806031   -0.01713115723450
H        -5.93632740871780    2.12508047130156   -1.14982384568966
