86
 energy: -160.087895585441 gnorm: 0.000554503037 xtb: 6.3.3 (4ae9cef)
C        -1.30906005334527   -2.90298978854851   -1.58962433716893
C        -0.61891156095721   -2.37214167559781   -2.81936866602209
F        -0.59280012050894   -3.26888996037614   -3.81824799913098
F        -1.19590387363277   -1.27939521844033   -3.34154646433735
F         0.66636497988366   -2.05682631995145   -2.59521614600275
C        -1.93668092868958   -4.13878724442285   -1.71803514250553
C        -2.55156996843060   -4.74262509141546   -0.64022951460176
C        -2.52526203047226   -4.11566960369881    0.59159581976099
C        -1.92170442717644   -2.88136213566235    0.71569569008208
C        -1.31829165186353   -2.23434519351072   -0.36180312160946
C        -0.74816873494285   -0.87279246108427   -0.04700598964321
C         0.77002384516233   -0.83425498279993    0.26835236499639
C         1.03704617916730   -1.25259137139267    1.68751323558655
C         1.69901993783335   -2.43779413385714    2.00956082071603
C         2.20644697725684   -3.35986451700526    0.93456944628759
F         2.76066559527889   -4.47666233753031    1.42628199873252
F         1.21501359908928   -3.78535863761604    0.11450244303580
F         3.13286874693918   -2.80637565762312    0.13948197718642
C         1.90118775200249   -2.79448801806072    3.33849513934002
C         1.44583646891877   -1.97836107269701    4.35553943306579
C         0.77909429705327   -0.80472685446479    4.04680612936877
C         0.57153312957105   -0.45442190768735    2.72794212190689
N         1.05517594898107    0.57536620138236    0.02705371092447
C         2.06014219566197    1.27626438273799    0.61488432556765
C         2.03762905337405    2.73796588787381    0.27600622957364
C         2.80655094463753    3.31561907263093   -0.73600785715805
C         3.71402019941858    2.51957290038992   -1.57884836334305
C         4.60892955033357    1.61046718616824   -1.02141615205202
C         5.44367329018350    0.86645109124313   -1.83553115373009
C         5.39767755828013    1.01974879117269   -3.21145315347892
C         4.51861186378047    1.93232029463492   -3.77323902673663
C         3.68588264344137    2.68259608448162   -2.96297016298243
C         2.68748271676959    4.68646701741073   -0.96000772394812
C         1.83942914676372    5.46574457525302   -0.19775739403667
C         1.08617314424112    4.88636642399263    0.80975884642211
C         1.18626099908141    3.52732302290271    1.04181085090252
O         2.80937283559868    0.78656609639737    1.43212360242921
C         0.29126068265569    0.99121098336629   -1.11811391310590
C         1.06888118601506    0.77358415456810   -2.43980517938229
O         2.17674973369823    0.07137869731310   -2.23256183986493
O         0.72866997053599    1.20542666855847   -3.49961207108726
N        -0.90814982858948    0.16997630709221   -1.04888612181425
C        -2.11655454117058    0.71651388271751   -1.39261541036753
C        -3.30843315507461   -0.09616054891861   -0.98324424949856
C        -3.94014996134859   -0.87083798595374   -1.94683178596789
C        -5.02961909890439   -1.65521818661033   -1.61481486110435
C        -5.50906453546205   -1.65129429800874   -0.31612594966585
C        -4.90927251111580   -0.85253239584406    0.63810931616171
C        -3.80727515814380   -0.06050072285602    0.32407936092917
C        -3.20323367283716    0.78889069132488    1.36760336029631
C        -3.00382241626224    0.28442681184846    2.65351064075904
C        -2.43253410982723    1.06743456834584    3.63927331492617
C        -2.05485242269115    2.37105448725821    3.36066734819004
C        -2.26744809365826    2.88873471358794    2.09369201144918
C        -2.83873296187956    2.10800742857166    1.10438940519323
O        -2.19302665064284    1.75602902320202   -2.00422830800924
H        -1.93413591993254   -4.63613832271965   -2.67500447115179
H        -3.03400986342753   -5.69919136369122   -0.76254751072687
H        -2.97944683894569   -4.58108105091205    1.45258066748493
H        -1.91017674645325   -2.39538571767518    1.67986532783656
H        -1.25796366140433   -0.53880845315323    0.86898658144866
H         1.33328896801393   -1.43784190405581   -0.44682918492349
H         2.42178062100623   -3.71024238559390    3.57136277568394
H         1.61600762424454   -2.25699497974152    5.38366035942590
H         0.42555335007024   -0.15728902728335    4.83438876246362
H         0.05958079807599    0.46722515175162    2.49547101600623
H         4.65763947221791    1.49289151926670    0.04942470234254
H         6.13246230002828    0.16336604531036   -1.39221740771462
H         6.04841469710376    0.43462642881223   -3.84475239228627
H         4.47980294399666    2.05986569691817   -4.84533877800143
H         2.98534504773694    3.37577133353714   -3.40523389063010
H         3.28575677069673    5.14128861715589   -1.73553087657134
H         1.76677170221631    6.52622042307322   -0.38696508212747
H         0.42454805285776    5.49098230225487    1.41169076388193
H         0.60034284503783    3.06451666767670    1.82344637043337
H         0.00157366922391    2.05192133221116   -1.08797445285077
H         2.67622535859639   -0.05988776715601   -3.05506403138149
H        -3.56819419444723   -0.85144335407098   -2.95891358122625
H        -5.50699489454678   -2.26080464229357   -2.36984512553169
H        -6.36170504642454   -2.25811850409311   -0.05030883016511
H        -5.31158491817474   -0.81835646230802    1.64001638429759
H        -3.28766466635624   -0.73444920770052    2.87698504781425
H        -2.28298335859094    0.65840550434814    4.62779585429003
H        -1.60588814625279    2.98179696594254    4.13010007511942
H        -1.99552965112473    3.91003992093673    1.87233177777362
H        -3.02596801901560    2.53287910844970    0.13127826354459
