74
 energy: -148.652531837901 gnorm: 0.000470679507 xtb: 6.3.3 (4ae9cef)
C         0.93105685901629   -1.99007098378824    2.05179162988258
O         0.73966806354865   -0.68314260780557    2.37751154570625
C         0.77903180638965   -0.30751373145529    3.73549995651859
C         1.13637503912376   -3.00530194932246    2.97854767433961
C         1.31552088124243   -4.31129994762608    2.55768235220779
C         1.29157117851804   -4.62390830436958    1.21223698811912
C         1.08861950561957   -3.61680797993902    0.28503664114945
C         0.90458740465969   -2.30438983705297    0.68388187938607
C         0.69126511656153   -1.23005645780851   -0.35254850769636
C        -0.63363690895013   -0.45953856019652   -0.17493725679842
C        -1.54876673562287   -0.63615743517155   -1.36092437761599
C        -1.16962512298323   -0.17532931250594   -2.61121769890548
C        -2.00397570834458   -0.32534182446237   -3.70523187436140
C        -3.22741378360111   -0.94880791786387   -3.54680992953594
C        -3.62221459176079   -1.42077872021333   -2.30672274814063
C        -2.78969035334087   -1.27129076773027   -1.20319045057692
O        -3.09923339420083   -1.67824806439325    0.05673595133244
C        -4.34246963570004   -2.29557973147773    0.29144578598856
N        -0.21494735245402    0.92372237094692   -0.02873315467650
C        -0.97643861450541    2.02230403826434   -0.15217294366514
C        -2.44421690700945    1.78229912162118   -0.19200991077053
C        -3.25379870178766    1.35682468834912    0.82745924429266
C        -2.95764108783542    1.05497432179863    2.25538934041682
F        -3.04859296064401   -0.25302466409526    2.56287025483690
F        -1.72097214653125    1.43483714083208    2.59321519072579
F        -3.80227131797066    1.68144889717739    3.09016786489716
O        -4.53925795834688    1.29113508780328    0.41754901642513
C        -4.56891292979483    1.67985597386046   -0.87163437526085
C        -5.87551482333879    1.69932867479968   -1.57474727906188
C        -3.31245989064355    2.00472241231068   -1.29265190447510
O        -0.49013940855904    3.13622055324707   -0.22799056560853
C         1.21584058293244    1.07734536305337    0.11785554563417
C         1.71410625181928    2.25117831462409   -0.75056460706679
O         1.36545474725639    2.09184842436000   -2.02968664251617
O         2.41888959627391    3.13429607278526   -0.35602827939401
N         1.72764314229615   -0.20303537343258   -0.29648014980067
C         2.98819049331193   -0.51301509277940   -0.67456708304942
C         3.98711348950944    0.57702410355265   -0.48981491109378
C         4.52853759176878    1.03361737267867    0.68277190050281
C         4.29250477897674    0.62293087934566    2.09259071575206
F         3.45492190553277    1.44569054092150    2.75686778058687
F         3.74251706538895   -0.59737348728423    2.17158536986474
F         5.42146454154552    0.58783054925818    2.81350384399456
O         5.43960840816615    1.99758748617548    0.44284549739250
C         5.50016611380166    2.17105990884445   -0.88724600034980
C         6.41511386484858    3.20915614605666   -1.42174988140579
C         4.64024601927468    1.31315558924409   -1.51204728278831
O         3.28579629607612   -1.59231868816979   -1.13877648384995
H         0.62997818204534    0.77098171200945    3.74459407884362
H        -0.02254249905035   -0.78843283164819    4.30447950422716
H         1.74566834632661   -0.54537254677526    4.18776788955086
H         1.16292408790131   -2.78514321325870    4.03334777403793
H         1.47745593516349   -5.08497639823025    3.29346183578970
H         1.43631392825764   -5.64142541037802    0.88433124064697
H         1.08276592098670   -3.84767458293014   -0.76930120928310
H         0.73942808504801   -1.69936395873148   -1.34268704917963
H        -1.14304857998852   -0.80098719223245    0.73081195707371
H        -0.21620940846650    0.31955505305179   -2.72002812250290
H        -1.69931534407809    0.04033051894456   -4.67335603115770
H        -3.88693902575615   -1.07355225265006   -4.39251625771184
H        -4.58095604936653   -1.90434716699178   -2.20886603081158
H        -4.35581968243741   -2.51556218586580    1.35719176708375
H        -5.17435499513915   -1.62611595211073    0.05033597823800
H        -4.44197206216565   -3.22605756832168   -0.27527807296855
H        -5.71371398919017    1.76237508377980   -2.64604511205309
H        -6.44082042569282    0.79936643758355   -1.34290888513243
H        -6.46585387508257    2.55735390025378   -1.25423959350939
H        -3.02007638079449    2.34478970021155   -2.26329858772827
H         1.46557180122196    1.31295859668357    1.16512745967910
H         1.64552012969693    2.86391673199429   -2.54655993458640
H         6.01082202674892    4.19931382783764   -1.21400328505022
H         7.38771834985425    3.13460329378784   -0.94032496071442
H         6.52789226038502    3.08846950709637   -2.49445231636225
H         4.47594385408536    1.20693330390441   -2.56414170790609
