60
 energy: -98.612103575786 gnorm: 0.000318658900 xtb: 6.3.3 (4ae9cef)
O        -3.31365089700290   -0.26113549225924    1.50718870722129
C        -2.73609241345044    0.66090135011034    0.97660426788165
C        -3.35662541432350    1.99952363427326    0.76279089155986
C        -3.92310005607964    2.66095463812293    1.84504245948912
C        -4.53157785768302    3.88993086497971    1.66362060034005
C        -4.59863375777300    4.45263234114002    0.39988037201182
C        -4.05971550324997    3.78249322385214   -0.68609950470167
C        -3.43679322999373    2.56035884489908   -0.50751523510569
N        -1.47813287319863    0.51715957874029    0.44665812686663
C        -0.52718971499539    1.58448809844929    0.29624446246697
C        -0.20723660443058    2.23406031724800    1.65900100364794
O         0.92968410227760    2.91626605414532    1.63087352758933
O        -0.91528362098105    2.14246823680963    2.62247751960334
N         0.62855911867979    0.94785482422490   -0.28697206315941
C         1.43743450318961    1.61825468436696   -1.15155994414601
C         2.54886481936815    0.77770249396326   -1.69713696814713
C         3.76219306340510    0.72150881944794   -1.02441510479382
C         4.78957026599905   -0.06204139148096   -1.51778668174512
C         4.61219426592769   -0.78650630627588   -2.68440083014577
C         3.40929593024897   -0.71729052519743   -3.36610184385657
C         2.37765230801993    0.06421056024232   -2.87575403466922
O         1.26562073499456    2.78729596581563   -1.41978782705659
C         0.57163365842617   -0.49843445720763   -0.13087118323033
C         1.76782926889777   -1.07509073165331    0.57682359523227
C         2.37493105544933   -2.22453394234072    0.09080421089055
C         3.47327105747501   -2.76160565325605    0.73754407199332
C         3.97388845080419   -2.15480883186682    1.87643515884570
C         3.36662165297691   -1.01348613202592    2.37196143792150
C         2.26635156055557   -0.47844019770245    1.72755167100297
C        -0.74668690646721   -0.72957095387756    0.64749159013903
C        -1.49558320013037   -1.92162279347364    0.11956551724223
C        -2.15558183749819   -1.84824730214082   -1.10044085491796
C        -2.81840580877047   -2.95235585530705   -1.60292085262377
C        -2.81582599702161   -4.14373224495624   -0.89722361106582
C        -2.15039441902657   -4.22467631833022    0.31352705952970
C        -1.49293829566736   -3.11790350523480    0.82078400624195
H        -3.86595115073543    2.20734695903622    2.82194641107889
H        -4.95990206032830    4.40765965966389    2.50900284569486
H        -5.07815961639378    5.41002597663470    0.25815939298929
H        -4.12531541827976    4.21259791117459   -1.67461061790409
H        -3.03362618815596    2.02990347526989   -1.35878257490565
H        -0.87287348433283    2.39668959856356   -0.36112212434811
H         1.08967459639792    3.37050779919842    2.47491063832291
H         3.89506112758012    1.29097033637184   -0.11694555786604
H         5.73018376583344   -0.10757451081098   -0.98974274594183
H         5.41439770689273   -1.39989858922108   -3.06701500006524
H         3.27297583603238   -1.27244515093889   -4.28247446507316
H         1.44039677596663    0.12571737411516   -3.41038427491350
H         0.48832263957565   -0.96414230747528   -1.12230106662759
H         1.98685550884769   -2.69614498855498   -0.80020840594999
H         3.94076465760297   -3.65383365558453    0.34916343308225
H         4.83427982666215   -2.57090826908937    2.37877608726398
H         3.75070170971815   -0.53964297492659    3.26322227311970
H         1.79647558455251    0.41374339004447    2.11363373154559
H        -0.53618695358619   -0.87082552944065    1.71740292428384
H        -2.16144862455944   -0.91709036559830   -1.64895934829671
H        -3.33942911835965   -2.88321476892079   -2.54658410790170
H        -3.33533300371315   -5.00559276971538   -1.28911602043159
H        -2.14793436891692   -5.15091329198758    0.86874505211556
H        -0.98008015725089   -3.17952020405214    1.76939880237433
