60
 energy: -134.998446777524 gnorm: 0.000515715883 xtb: 6.3.3 (4ae9cef)
C        -2.02189174236554   -2.23121169322996    0.19158125281134
C        -1.50032524610726   -2.85580062233580    1.45637679786604
F        -1.97932255968911   -4.08438669811736    1.67052493324961
F        -0.16026829693020   -2.96592939532596    1.48438652655173
F        -1.83233316156825   -2.13775479585500    2.55045024472845
C        -2.98453162263658   -2.92445888662060   -0.53321096535675
C        -3.48237706338051   -2.40210055534936   -1.71093568105896
C        -3.00754367632728   -1.18814975797959   -2.17622388850847
C        -2.05385325341429   -0.49634322642276   -1.45515385499713
C        -1.55711570364413   -0.99268785765935   -0.25331125945119
C        -0.49769232844638   -0.18968436308321    0.46495996845701
C         0.83647637000332   -0.22905203572332   -0.32337344387714
C         1.86813995382316   -1.12738338850639    0.31259686443634
C         2.28566188856440   -2.32993549699672   -0.25821261066512
C         1.68150072654861   -2.83601095846855   -1.53848456749045
F         2.14182950573559   -4.03988902156377   -1.89628412830795
F         1.87844541847716   -2.03523995516137   -2.59737162986545
F         0.33481293699545   -2.97881757589652   -1.44627767692384
C         3.25669490620280   -3.10173021567637    0.36746639138787
C         3.81431833828516   -2.68627165224469    1.56199611290062
C         3.39534480065678   -1.50213017703356    2.14221566694169
C         2.42930794317103   -0.73347540125994    1.52139781145520
N         1.30202370766014    1.15350048394013   -0.31159063594196
C         2.47701392741468    1.46471093040990   -0.92508746912770
C         2.86465463519032    2.89529449441438   -0.86346076797968
C         3.16541624215591    3.64501053345597    0.24057505830821
Br        3.17303402665938    3.19767855930224    2.04523841205005
O         3.56043464625947    4.87735227594144   -0.08936081116680
C         3.51808189249104    4.94795651152289   -1.43024193852347
C         3.11486540236540    3.76442009525050   -1.96244548603208
O         3.16346567999087    0.62263867588585   -1.45868691884627
C         0.29830653423595    2.07181433699073    0.15958750637463
C        -0.08996323946397    3.12235717669548   -0.90609425778619
O        -0.61322221175735    2.54539216011360   -1.98961183483795
O         0.17765791549433    4.28555456035428   -0.82364532051834
N        -0.82439764413173    1.22634107655810    0.49262619824242
C        -2.04670660748314    1.80304610927873    0.57313898138789
C        -3.09951878229317    0.96931694987499    1.19396645176571
C        -3.08406016188783    0.53864080162560    2.49465588957214
Br       -1.80311346654858    0.78596319831564    3.81784677269680
O        -4.20946792766219   -0.10729660952909    2.81022897701452
C        -4.97890974567730   -0.10328527869230    1.70687619363661
C        -4.36170088588036    0.55295343808361    0.68852698245396
O        -2.21688711242309    2.95650935924883    0.22846848839513
H        -3.33355948400527   -3.87993606872654   -0.17483499574601
H        -4.22682336127414   -2.94900077637399   -2.26738626876194
H        -3.37452769241485   -0.78145906759466   -3.10597222795681
H        -1.68568242387411    0.44806733959112   -1.82657573447387
H        -0.32905204919500   -0.54615265739578    1.48745849955012
H         0.64885147309030   -0.52167806967985   -1.36197759786034
H         3.57443894519129   -4.02785474209625   -0.08526968321766
H         4.57165205549542   -3.28985904135889    2.03698788494845
H         3.81910870741135   -1.17090847570097    3.07739713690429
H         2.11263766628667    0.19267096308844    1.97740084367383
H         3.79404480026726    5.88097488768294   -1.87799458595237
H         2.99654955174346    3.51747577024324   -2.99662557315345
H         0.62383933399351    2.62507696210296    1.05650868425069
H        -0.85947644138806    3.22186266120148   -2.64073508496015
H        -5.93162295864852   -0.58791884800824    1.77529472557201
H        -4.73266108133570    0.72121205449666   -0.30030235820362
