72
 energy: -117.795149205066 gnorm: 0.000362223922 xtb: 6.3.3 (4ae9cef)
O         2.57990179851104    1.54731486532873    2.05205249621443
C         1.80905068350938    0.67920956708358    1.71085708437618
C         1.92495017162505   -0.76120521712298    2.10751328251971
C         1.19818020362529   -1.25617473112702    3.16134732383869
C         1.28833243084714   -2.61212256403789    3.51339594925754
C         2.09939104821356   -3.45428742900915    2.80484806766987
C         2.87280540253132   -2.97689390495929    1.72617806491904
C         2.79671245358321   -1.60341949805399    1.37300058448567
C         3.57810929128246   -1.12372130698550    0.30107189483158
C         4.39064588202117   -1.97299022852210   -0.39565374914246
C         4.46031488075135   -3.33281379815429   -0.05516001966444
C         3.72185599941526   -3.82356146792857    0.98425410147211
N         0.74254483998983    0.93108192547252    0.90354869238431
C        -0.31406243570573    0.00034959738656    0.59681443385066
C         0.20279773821328   -1.16448705161564   -0.29562580397827
O         0.08319456075920   -2.39608785766168    0.20123454360839
O         0.66748393407746   -0.96541448960824   -1.37808309371793
N        -1.27454885341821    0.79420076747389   -0.12795931807955
C        -2.42008066615914    0.31510426889843   -0.69140504307831
C        -2.76065341683950   -1.07809691008613   -0.26033815986251
C        -2.64268789950932   -2.15108778163638   -1.17852704815547
C        -2.20443669386078   -1.96347937274044   -2.50594015739283
C        -2.08747364418564   -3.02855159080501   -3.35365439746255
C        -2.39872626660160   -4.32536807864462   -2.91647341826037
C        -2.82698627570440   -4.53810404923014   -1.63687688474670
C        -2.96074604996177   -3.46259751477944   -0.73456945450664
C        -3.40200303735661   -3.65429055753292    0.59114053511774
C        -3.53120485410689   -2.59617717689950    1.44715814454842
C        -3.20554746845492   -1.30074434745777    1.01974745885605
O        -3.10102398904194    0.98364033649964   -1.43533940601272
C        -0.75911490739169    2.10824665675233   -0.49373102650999
C        -1.76446786976942    3.19646369773301   -0.22624977098233
C        -2.47782553489614    3.21451477967291    0.96534124867822
C        -3.38417577473571    4.22638121498732    1.22217691857703
C        -3.57718836123274    5.23595701709380    0.29457241620111
C        -2.86122571969916    5.22803736748511   -0.88997069276338
C        -1.95915021097351    4.21187165023582   -1.15031172003166
C         0.50590549463644    2.26841538324342    0.36960720192575
C         1.68273583721400    2.77400851075633   -0.42309797073291
C         2.26151986506736    1.97323180593634   -1.40046112310753
C         3.34019628580413    2.44031675927728   -2.12973380282240
C         3.83996745377557    3.71071907927716   -1.89848683083987
C         3.25710433308307    4.51450317432621   -0.93411124605441
C         2.18355739914422    4.04718319687078   -0.19684023578867
H         0.56027086384356   -0.59773286294813    3.73502797628084
H         0.71118529201030   -2.97908169959595    4.34930711734762
H         2.16645583075125   -4.49998922534006    3.06760960617306
H         3.53342193783699   -0.07521862732055    0.04726592028668
H         4.98575392446340   -1.60055863276071   -1.21567366676060
H         5.10605221501143   -3.98794081149493   -0.62107940459052
H         3.77509918710992   -4.86834522024946    1.25473183579363
H        -0.76054224408378   -0.41093210544738    1.52126340749388
H        -0.27970278398671   -2.43413542854275    1.09752286110197
H        -1.96961205951884   -0.96591985473351   -2.84348205267309
H        -1.75134678389457   -2.87781200562172   -4.36829505253133
H        -2.29722155037303   -5.15411882885787   -3.60158815067358
H        -3.07010927900923   -5.53368309651473   -1.29404006100243
H        -3.64607112410074   -4.65529854500082    0.91633071914792
H        -3.88553930325635   -2.74554356586242    2.45638895105860
H        -3.32354892899430   -0.46926212208417    1.70104288469799
H        -0.49534275401071    2.10740460944527   -1.55941247008989
H        -2.32837673446222    2.42714810131852    1.69129914745794
H        -3.94144697973076    4.22774341314179    2.14764139917565
H        -4.28649934011736    6.02528971447807    0.49452015894502
H        -3.00955422523906    6.01259106673841   -1.61693579876270
H        -1.40545199031652    4.20198034994953   -2.07746379111264
H         0.31551548709997    2.95202164572154    1.20841821952836
H         1.87173391151391    0.98323874258219   -1.58969106808276
H         3.79007527938143    1.80865890701167   -2.88152824512924
H         4.68293250385483    4.07297602063428   -2.46830913413870
H         3.64288116559314    5.50620575447643   -0.75023543091663
H         1.73506242455039    4.67123860967656    0.56210705234222
