60
 energy: -127.836089337233 gnorm: 0.000689706209 xtb: 6.3.3 (4ae9cef)
C        -2.12374997389233   -1.20543447446799   -2.06680876088932
C        -2.61437546716398   -2.20641537396654   -1.05662878539991
F        -3.36698357123391   -3.17086345238724   -1.60094278997030
F        -3.35065662250790   -1.68406916482967   -0.06412987233136
F        -1.59299445022518   -2.85311237325912   -0.44195366382226
C        -2.51789811588310   -1.36264623736433   -3.38944324874075
C        -2.06012742451397   -0.49554654256347   -4.36346137915940
C        -1.19499425353464    0.52676942358117   -4.01902651828784
C        -0.80377748984148    0.68610769139779   -2.70300100406309
C        -1.26297097372446   -0.16637682896484   -1.70656339331758
C        -0.82499687336552    0.07429254582147   -0.28396678527273
C         0.67906962729229   -0.22068792768953   -0.02322293870180
C         0.85558086994651   -1.57499280704665    0.61514096751112
C         1.35994268053570   -2.68419153355811   -0.06641822086092
C         1.73619131092622   -2.60982931785003   -1.52170735458385
F         2.72450053100257   -1.73281440044004   -1.77939187498811
F         2.15856626477553   -3.78163963764386   -2.01039399028066
F         0.70521030906053   -2.23447985412963   -2.30492996879380
C         1.49221852687251   -3.90669896399020    0.58222514475165
C         1.11653329848713   -4.04157597786441    1.90454849258873
C         0.58418545274581   -2.95740311529996    2.57983095538427
C         0.45181024756485   -1.74288036345967    1.93623091027731
N         1.05690514744327    0.86488647695107    0.86730789787965
C         2.01787507003224    0.93361744101447    1.83023104211532
C         2.99285064057508   -0.17831089279000    1.84108206390011
C         3.82851145351108   -0.61636408647363    0.84931137553375
C         4.63558100293311   -1.61616394971374    1.43676422552759
C         4.23457782766356   -1.70484805591165    2.73512455645098
O         3.25298702583060   -0.83101294722868    2.99166733227776
O         2.06733616481007    1.87557603013855    2.59526177647837
C         0.25441014520032    2.02681928851419    0.58462687125928
C         0.97892548407867    2.85995408071836   -0.52069147242165
O         0.51599252512429    4.08511339183353   -0.71614768323067
O         1.87818292281408    2.39866596278717   -1.15894879356457
N        -0.98730319015570    1.48107911024817    0.09282158671740
C        -2.25840334292714    1.97029499605675    0.14961275301787
C        -2.50900117359614    3.28846309602187    0.75040252674608
C        -3.74073149806740    3.81448836227305    1.04335336374932
C        -3.51096277062207    5.07953601716561    1.62777263590997
C        -2.16217611454964    5.24546632242842    1.64863067399850
O        -1.53963554044234    4.17078683019373    1.12463528804057
O        -3.19002139982086    1.31639176089794   -0.28036796880386
H        -3.18425618092460   -2.16829462673812   -3.65479350784587
H        -2.37481976512866   -0.62512947675772   -5.38705095531285
H        -0.82097615628510    1.20268862027894   -4.77250137329006
H        -0.12443401647663    1.48400938430121   -2.44737810110085
H        -1.44037624383855   -0.51510457319753    0.40371737926056
H         1.23672738225404   -0.12958183567193   -0.96114346082635
H         1.88616022626003   -4.75443334759879    0.04442936273793
H         1.22796686729040   -4.99345764019324    2.39909188719170
H         0.26956283086244   -3.05565751702450    3.60718923517536
H         0.03902182163867   -0.90045333428084    2.47086931238296
H         3.87329345108965   -0.25373652857758   -0.15614647578238
H         5.40594628675924   -2.18240051874083    0.95618004433984
H         4.55818903101419   -2.32873480691238    3.54442943323160
H         0.13912953838041    2.62517479677557    1.49832596702908
H        -0.19225653004401    4.32780185472201   -0.09105394152241
H        -4.67908430816597    3.33429210831920    0.86024613777936
H        -4.24897502968862    5.76885318055941    1.98124376376274
H        -1.53700448815553    6.04421971159193    1.99591032014632
