28
 energy: -40.943088044568 gnorm: 0.000888510249 xtb: 6.3.3 (4ae9cef)
C         4.91805131027334    1.21182980630612    0.96360380926485
C         4.05079345715774    0.22325782232316    0.86376342338993
C         3.54105623964014   -0.33068136042297   -0.43516364171937
C         2.04353784295893   -0.19779881903375   -0.48279383521758
C         1.46245335328816    1.01685052075263   -0.83218862426849
C         0.09057931508337    1.15926701645002   -0.84860197239995
C        -0.73079903303510    0.08515743148724   -0.51147541529705
C        -2.19870148634677    0.28012922929494   -0.55406650407397
O        -2.87214936787021   -0.84220467506524   -0.25685389973125
C        -4.29572349831512   -0.76046654243694   -0.26896171971616
C        -4.83512330699650   -0.22766807702488    1.05074115731456
O        -2.73553555062458    1.32331616732337   -0.84085372634512
C        -0.15475733368543   -1.12966668519269   -0.15130728689444
C         1.21994275660702   -1.26306204765878   -0.13676948817032
H         5.33701871500743    1.68955484947440    0.09294627930450
H         5.25404017150477    1.58154294705777    1.91714715703054
H         3.63946633603208   -0.24059070555578    1.75067712713621
H         3.99481958705741    0.20987801460881   -1.26759568524871
H         3.81868479984800   -1.38559698246145   -0.50815879126071
H         2.09578158286570    1.85214826903965   -1.09285463571980
H        -0.37029009123521    2.09648439135671   -1.12160669854525
H        -4.63764816114402   -1.78199217438503   -0.45094782769249
H        -4.60634081989601   -0.11005691896510   -1.09370227245316
H        -5.92114546931017   -0.23781524839563    1.03172916662855
H        -4.48700060090494   -0.84436434503528    1.87611955512533
H        -4.49466831645499    0.79346464848672    1.20410281154467
H        -0.78814836784540   -1.96159945794018    0.11373367812737
H         1.66180793634012   -2.20931407438766    0.14186785988778
