56
 energy: -105.176469837466 gnorm: 0.000811917149 xtb: 6.3.3 (4ae9cef)
C        -3.11024865428820   -1.03881385859075   -0.89522132684911
C        -3.93944749479669   -1.07747676400853   -2.00245254779656
C        -3.49579849406178   -0.58694286238426   -3.21841008802026
C        -2.21425398265620   -0.07372458127827   -3.32744897911634
C        -1.38446023692324   -0.03444597079719   -2.22189613899997
C        -1.83158201338449   -0.50537935054607   -0.99313227889141
C        -0.95226784589630   -0.41082137317263    0.23110280700955
C         0.28779890466760   -1.31786863220162    0.14317166536518
C         0.70305496820797   -1.93851265502133    1.45920047582553
C         1.38334540821811   -3.15042371026222    1.44209275355364
C         1.83760556419132   -3.71560451301815    2.61999520298012
C         1.61624420158978   -3.07821454921719    3.82869463072208
C         0.93835472814626   -1.87228980913264    3.85308112457738
C         0.48522373268999   -1.30261383073050    2.67557844191459
N         1.32754072188100   -0.40435906617400   -0.33183340659156
C         2.44935679670044   -0.88939023028854   -0.92514486610818
C         3.54308311876271    0.04525892011024   -1.23525152961657
C         4.80505551923877   -0.31134958720488   -1.65739824740905
C         5.52911715314798    0.88112095386507   -1.80072573206732
C         4.65624198811866    1.89210844277281   -1.46014556467448
C         4.86948621915543    3.27929521783507   -1.43355225908219
N         5.07652075119108    4.40691238992417   -1.41952143782890
O         3.45299521626360    1.38238453993819   -1.12124834790340
O         2.55116965275642   -2.06688939919815   -1.21594085100847
C         1.06096601493513    0.90508693637373    0.18991741912584
C         1.84732082993918    1.16174381114395    1.49259031038209
O         1.17412282164334    1.91881093071367    2.34497218560199
O         2.95526503837375    0.74384033273290    1.67821727299696
N        -0.37389774167608    0.92482453188298    0.36783333428370
C        -1.04722541363097    2.08834170331293    0.17037736603263
C        -2.53166352098232    1.94022721171567    0.24254485804976
C        -3.34878728557529    1.56874543514934    1.28077396692187
C        -4.66316307668791    1.62450428378880    0.78341166064270
C        -4.54999941295620    2.02612526511736   -0.52902435700676
C        -5.55250239078072    2.18958973535220   -1.49690014881930
N        -6.39790018459229    2.29974722380649   -2.26381543004574
O        -3.25412078108088    2.23137555817762   -0.84425084909448
O        -0.49150184285927    3.14589141668851   -0.01764556395815
H        -3.46144810233654   -1.41314110778131    0.05625130343138
H        -4.93731127397958   -1.47931194020123   -1.91186691729976
H        -4.14902457372388   -0.60084029968189   -4.07705030217558
H        -1.86159781737792    0.30488619172988   -4.27460408114530
H        -0.38908869182792    0.37520182979193   -2.31258195338744
H        -1.54457709009684   -0.66392741793241    1.11639279010075
H         0.16352653109954   -2.10394120164394   -0.60789355422183
H         1.57134353172111   -3.63742506614830    0.49793195334668
H         2.36801639837643   -4.65538449107503    2.59266880825325
H         1.97186446144443   -3.51728660494266    4.74870755241088
H         0.76191424675858   -1.36906524547005    4.79258642597627
H        -0.04175928065041   -0.36047011537810    2.71955707133304
H         5.14380746168980   -1.31158966781433   -1.83012145376050
H         6.54813222572711    0.99890485724258   -2.10804271718197
H         1.34819850431202    1.71480349861114   -0.49980360373653
H         1.71246680100014    2.13095851968008    3.12571012606824
H        -3.04491921152703    1.30513723759382    2.27307095980214
H        -5.57059709759075    1.40167792624460    1.30649106708144
