72
 energy: -111.303923269032 gnorm: 0.000290919606 xtb: 6.3.3 (4ae9cef)
C        -2.64167618832534    3.03844171885628    0.41186271357312
C        -3.13043618693048    4.20887013309420    0.96737089794222
C        -2.28225055304378    5.27556035342695    1.20555703962367
C        -0.94241162461466    5.17274085671711    0.87016529216321
C        -0.45262284379596    4.00336433649054    0.31847360563635
C        -1.29486426995848    2.91867934977181    0.09976693548443
C        -0.73226369264382    1.65571320961450   -0.50736219469695
C         0.52120130804698    1.12240346492681    0.24843048490599
C         1.66894303557332    0.85931578440807   -0.69186128505808
C         1.56169095158834   -0.13012845284479   -1.66181169218757
C         2.61206302311798   -0.37708376830592   -2.52536212745410
C         3.77824731002406    0.36364189472258   -2.43077328051409
C         3.88678764634041    1.35754304553566   -1.47423990550459
C         2.83505012657405    1.60668855887766   -0.61142873609743
N         0.03657148172314   -0.09855184262004    0.87278972486827
C         0.76694203011244   -1.11257791725749    1.40464588669404
C         2.22891971574748   -0.83945813352841    1.51119830323281
C         3.12218680291593   -1.61722414590258    0.79287386058427
C         4.48525660591330   -1.35750404377182    0.85316915004950
C         5.43781282293009   -2.16439601683171    0.02593408497482
C         4.93301527648678   -0.33177668950899    1.67042488668733
C         4.05354692667420    0.42887170487989    2.43281518838459
C         4.57745311189494    1.52122275051078    3.31569105238222
C         2.69518192395558    0.17128462046596    2.34261867611434
O         0.24197199979892   -2.14932933767436    1.76053396904437
C        -1.39247086975032   -0.22383693246508    0.70760929364116
C        -2.14230165406315    0.36338592524074    1.91901562125704
O        -1.33464092735955    1.02323024395117    2.74265000863007
O        -3.32179509340582    0.24714671166184    2.10306012892217
N        -1.66845494655451    0.54388357772035   -0.47791866700655
C        -2.16985200747696    0.05767264056234   -1.66190114057371
C        -2.93096993576746   -1.21387121597545   -1.58673871210856
C        -3.88819046147623   -1.45308681951637   -0.60631267600656
C        -4.59131800143796   -2.64875416793190   -0.59485618075117
C        -5.63306328630959   -2.89892825249928    0.45163197962911
C        -4.32411083960627   -3.59832839381313   -1.57382735741185
C        -3.38519693663525   -3.36988990187574   -2.56960327547636
C        -3.11020825911310   -4.39287273803608   -3.62938188268621
C        -2.69696123855736   -2.16457260296955   -2.57313524155520
O        -1.99749343783538    0.66196933300214   -2.70106139974570
H        -3.31547112248021    2.21935110433308    0.21229637212328
H        -4.17984064713405    4.28532237484683    1.21004082968959
H        -2.66450032582447    6.18780007485473    1.63872255974235
H        -0.27761548737796    6.00805520595722    1.03413043608775
H         0.58923500432709    3.93573134131792    0.04010081671406
H        -0.49533598381902    1.85350665431648   -1.56144236952086
H         0.82565813645150    1.83851395854103    1.02006954679439
H         0.65545972591105   -0.71378638771641   -1.73607985045117
H         2.52045457815067   -1.14971194802009   -3.27414050183426
H         4.59966541815266    0.16885405808328   -3.10445876192427
H         4.79344475054064    1.93890795695645   -1.39757205387864
H         2.92510028896454    2.37833758445615    0.13945129122995
H         2.74917415710544   -2.41582761706304    0.16924770964984
H         5.33637668759462   -1.88794684081273   -1.02364698976171
H         5.21695298529764   -3.22609855257355    0.11429187947543
H         6.46656006453624   -1.99105525841462    0.33091494087327
H         5.99199390633404   -0.12040817076750    1.72571279125165
H         5.02039138476511    2.31333464073906    2.71218457907647
H         5.35152553539453    1.13792544141005    3.97818827901816
H         3.78223618340169    1.94989744727218    3.92008322748728
H         1.99238806321656    0.74773435250860    2.92756290064491
H        -1.68099091933232   -1.27824779359619    0.60901351419355
H        -1.83289913653462    1.37691306110726    3.49767944702738
H        -4.09827725621261   -0.70664045245217    0.14368104495090
H        -5.42296616779787   -2.31830577921380    1.34626685054820
H        -5.67682817884193   -3.95407386108807    0.71189119086991
H        -6.61350933614264   -2.60279446527352    0.07724821469979
H        -4.86586070808517   -4.53405771606417   -1.56109756265771
H        -2.06177967640019   -4.68723306597500   -3.60865659007009
H        -3.31959456651810   -3.97958890023098   -4.61496814624006
H        -3.72316021287484   -5.27882415535828   -3.48573868071104
H        -1.96727398954995   -1.95504113319560   -3.34168994469848
