86
 energy: -132.082737294450 gnorm: 0.000658057118 xtb: 6.3.3 (4ae9cef)
C         1.56470561863172   -3.35389909063247    2.43736636955185
O         0.55372037073581   -2.52112203748637    2.83182447494382
C         0.29960335921822   -2.35867356239686    4.20548554958407
C         2.43681475148182   -3.96965398201454    3.32754725153386
C         3.45208995792142   -4.78903491347662    2.86691240152798
C         3.61066868444986   -5.00451784444859    1.51192301761259
C         2.73820468380506   -4.40120851697289    0.62419758377198
C         1.70696349936844   -3.58234763742376    1.06126858895550
C         0.83077923231998   -2.94634869091456    0.00891075285612
C        -0.65763419902773   -2.73912632484582    0.36388109897233
C        -1.56119701507528   -3.17524421791788   -0.76246728460406
C        -1.57474824530630   -2.48376036708218   -1.96184005603971
C        -2.41567198484751   -2.85910296328976   -2.99436806918164
C        -3.25841693258508   -3.93991593520983   -2.82033067054407
C        -3.25486313392912   -4.65021492327439   -1.63224613246541
C        -2.40464900291571   -4.28203097263441   -0.59541987034536
O        -2.31535880770603   -4.93834807197385    0.59444681088049
C        -3.23176676003556   -5.97149734659070    0.86253086855860
N        -0.76992547680214   -1.29561838214091    0.56288439552032
C        -1.96491985138519   -0.69615893262388    0.78994796597052
C        -1.96820326894133    0.79369413551589    0.64883411559789
C        -2.33534801908206    1.60936484092150    1.70967567372741
C        -2.38986207431657    2.98106591018456    1.54929949994573
C        -2.09419377718484    3.57220298794714    0.32617797833853
C        -2.17609309863691    5.06712635792346    0.13799737385555
C        -1.24362971451907    5.80158036132935    1.10331886635841
C        -3.62011850653809    5.54527336679887    0.30907060077654
C        -1.75011090917421    2.74705542679077   -0.73730590361642
C        -1.69024778080579    1.37449664446020   -0.58392526035630
O        -2.96873509591737   -1.32988520305316    1.04506543945874
C         0.51124347593873   -0.65029271266457    0.41491186598695
C         1.16825338263779   -0.29181748258057    1.76256803516048
O         0.30680151613966    0.31906137639173    2.57385632462662
O         2.33478299073484   -0.42212233318798    2.00795503417786
N         1.29088489810040   -1.60017193362698   -0.32090626381054
C         1.96064890651310   -1.35231292585941   -1.48214927651447
C         2.12178396845541    0.09827971381612   -1.79640757427840
C         1.55811042495021    0.60645155913565   -2.95981785596598
C         1.65178265190314    1.95713976883518   -3.24240375865681
C         2.32169869674632    2.82238829658263   -2.38683556513771
C         2.39879465714304    4.29703437634781   -2.69484344549698
C         3.84878602235555    4.72719448688280   -2.92540650963158
C         1.75831583408510    5.11675804776428   -1.57228982849184
C         2.91687710884539    2.29560010449143   -1.24526158943554
C         2.81763308503796    0.95076467992140   -0.94586340068002
O         2.36706254722546   -2.24510500815151   -2.19518631789900
H         0.08708363249510   -3.31716878275881    4.68835621682530
H        -0.58505920761430   -1.72499529844688    4.26271127608847
H         1.13752589038116   -1.87215426531334    4.71731244854763
H         2.33901445449115   -3.80787312594778    4.38927362861693
H         4.12039760640682   -5.25301368995488    3.57703453897900
H         4.40621209709720   -5.63520104195107    1.14675422673477
H         2.85973259888578   -4.55475783620666   -0.43755367320413
H         0.92405209652498   -3.54392450494041   -0.90541638616992
H        -0.94516683100536   -3.27542033811489    1.26946082848361
H        -0.91476565274487   -1.63720218450267   -2.08852362117676
H        -2.41512666825740   -2.30958346248581   -3.92319058322910
H        -3.92744965762271   -4.24000667289345   -3.61321941894436
H        -3.92261201395310   -5.49019300843152   -1.52383024137975
H        -3.01992576862710   -6.29444908765274    1.88089435983586
H        -4.26510697318270   -5.61611493382544    0.80375021614542
H        -3.09504104215993   -6.81865960002688    0.18166047351078
H        -2.57686350278181    1.15931681111662    2.66029526164369
H        -2.67632995902379    3.59708008270779    2.38864100016810
H        -1.86042407051049    5.30004772294393   -0.88550090007813
H        -1.55153017987852    5.64643516281597    2.13413087454771
H        -1.26079053811640    6.86974460453085    0.89893245844811
H        -0.22204130476149    5.44487827156122    0.99139978329718
H        -4.27597120267677    5.02335491649336   -0.38430787164929
H        -3.97162379519213    5.35601729971140    1.32020692672122
H        -3.68862651325456    6.61335788579988    0.11485932004670
H        -1.53342213983664    3.18049787355565   -1.70393535018348
H        -1.45231763509787    0.75206823933396   -1.43566252421362
H         0.42562003865980    0.30594203713198   -0.12190076556225
H         0.74599868488666    0.57774959789484    3.40052393345244
H         1.03949425872149   -0.05949782791691   -3.63416649919142
H         1.19337833753841    2.34469189173071   -4.14131029152575
H         1.83724465748395    4.48317333807310   -3.61724925966873
H         4.44085674532854    4.58819697882378   -2.02434915938388
H         4.29578294808287    4.13800701398960   -3.72293365250514
H         3.88957568381591    5.77759418788131   -3.20501593860592
H         1.72589529027207    6.16913290940742   -1.84582693949660
H         2.32702600262238    5.02106042888731   -0.65049218081856
H         0.74288590781103    4.77391402468758   -1.38503695496739
H         3.46250729907930    2.94201753182915   -0.57449622846791
H         3.27859475573946    0.55293772091485   -0.05434363688343
