54
 energy: -104.236786529454 gnorm: 0.000719003036 xtb: 6.3.3 (4ae9cef)
C        -0.73188550488758   -1.14901015275392   -2.28603696097273
C        -1.21197668003108   -1.82578835640117   -3.39214352955331
C        -2.41347984969504   -2.51033140686903   -3.32218205863223
C        -3.12803413683934   -2.52669891690308   -2.13689173196010
C        -2.64953069784626   -1.84875844530196   -1.02992196796202
C        -1.45356570637588   -1.14649557630529   -1.09853082132413
C        -0.95888091591692   -0.37162443244999    0.09966221400196
C         0.32709387673331   -0.96785356904349    0.69934958305894
C         0.42589288231970   -0.86253924173763    2.20552837543281
C         1.21849343413101   -1.77990171913749    2.88553690227232
C         1.39105557504117   -1.67864684912092    4.25400892398549
C         0.77234132565100   -0.66134916480711    4.96010669995833
C        -0.01769580096124    0.25523745504087    4.28947433032511
C        -0.18913191941939    0.15896036774688    2.91904367245947
N         1.37801099209390   -0.16728888600558    0.07337100153922
C         2.64282578694678   -0.65216144295790   -0.03989168317105
C         3.69633467293320    0.23479042738003   -0.54537158360579
C         5.03748216996187   -0.05459010269130   -0.59943269619553
C         5.68128865351848    1.08786232805756   -1.11588068379335
C         4.68194406154656    1.99134884133542   -1.34055716113529
Cl        4.72600361989988    3.57033245403226   -1.95776845674725
O         3.48302731484574    1.49537366136371   -1.00748588136522
O         2.90068404816950   -1.80674811218446    0.25143704786167
C         0.87822695704718    1.16222652306799   -0.12413651881485
C         1.25345256056513    2.08665248606078    1.05126945507498
O         0.31049583277003    2.98482700598126    1.30246455049969
O         2.29586715858109    2.01651911237873    1.63754312993619
N        -0.54925165464980    0.98033638883866   -0.27446128157889
C        -1.23395022179109    1.78896590082546   -1.12672097371931
C        -2.66775661669400    1.41137654504946   -1.28311350256321
C        -3.68570070690943    1.32110112687881   -0.37585527834418
C        -4.83806138584608    0.93802858129894   -1.10174438850045
C        -4.42374220497231    0.82597139044287   -2.39583917971210
Cl       -5.25909253280781    0.36092840375408   -3.79589846098089
O        -3.12346653708041    1.12201184272301   -2.52184901123769
O        -0.72553066069250    2.73847511888951   -1.67835168649343
H         0.20319025192249   -0.61250944748295   -2.35052918402816
H        -0.64882245518703   -1.81307469690140   -4.31297528077226
H        -2.79317235169677   -3.02794034992854   -4.18998320045316
H        -4.06531344971085   -3.05901221856758   -2.07560215839981
H        -3.21360145195527   -1.85358678818373   -0.10810365937440
H        -1.75072736997008   -0.33927924532216    0.85395409782854
H         0.47335064569740   -2.00895146714228    0.39585821677349
H         1.71507822560850   -2.56066596239581    2.33074593082894
H         2.01268361928593   -2.39495683685113    4.76956400503120
H         0.90697178971910   -0.58023087754012    6.02835500076967
H        -0.50249049229914    1.05269074772069    4.83374877807575
H        -0.80799057431787    0.88823665136452    2.41688400498118
H         5.48624875945943   -0.97788868955293   -0.29728090615894
H         6.72618176192295    1.22933954612517   -1.29381306623043
H         1.27820592332285    1.64514986011918   -1.02930298923902
H         0.59398843742497    3.60001023303039    1.99896603616591
H        -3.62914477677475    1.51911485180847    0.67470054657544
H        -5.82442568179554    0.77201810322591   -0.72391856042460
