31
 energy: -48.378511313104 gnorm: 0.000426705991 xtb: 6.3.3 (4ae9cef)
C         1.95025812095757   -0.24149429695862   -0.09836416108286
C         2.91521709081906    0.48031473226942    0.64047407591781
C         2.21230687184495    1.14999463394649    1.68616579120116
C         0.89879283354294    0.84655833879507    1.54117828647102
N         0.71114113802566    0.01839342728644    0.45381824597906
C        -0.49377526549269   -0.54952338197884    0.06239212916473
N        -0.43834924106396   -1.79356190439443   -0.34721985177644
C        -1.56986516629168   -2.43943964226842   -0.64687758201632
C        -2.81112315918865   -1.88569921802730   -0.50370611337993
C        -2.91013093384105   -0.52681161399167   -0.13235431365594
C        -1.71285080230591    0.19668746623384    0.11575844606889
C        -1.79224573690309    1.58646371907840    0.33360649221023
C        -3.00841587352580    2.21154952297797    0.39254570316202
C        -4.19490806666601    1.48117538784433    0.23322475985774
C        -4.14730903234217    0.14299681757787   -0.04036448559683
C         4.25703304819933    0.41922137351983    0.27211876317303
C         4.60458587904429   -0.35201331370461   -0.81517077719456
C         3.64050298344084   -1.05410598090134   -1.54096260638354
C         2.30447158112986   -1.00822439616391   -1.19875257195233
H         2.64400809561188    1.76592036187538    2.45008130829838
H         0.07047949891149    1.11303929285488    2.16954734136360
H        -1.43238002165852   -3.45754942908320   -0.98540721943550
H        -3.70656912444868   -2.45593156846934   -0.69576204847388
H        -0.88561734104466    2.16542295295562    0.42351819645577
H        -3.06003010359959    3.27770970301928    0.55651036536628
H        -5.14475816771206    1.99056388179709    0.30324323689601
H        -5.05331340755953   -0.42194384948812   -0.20519186246214
H         5.00181761589489    0.96637771242612    0.83087606425147
H         5.63998936073510   -0.41826324061620   -1.11627316980173
H         3.95057820645404   -1.64914517796926   -2.38727115184332
H         1.56045911903195   -1.55868231044300   -1.75138229078191
