54
 energy: -101.633621767285 gnorm: 0.000498924391 xtb: 6.3.3 (4ae9cef)
C        -2.67724090023286    2.04802364200902   -1.82760583812713
C        -4.03501797858169    2.29334298135762   -1.73669362526221
C        -4.66361071959551    2.27240494427567   -0.50266481850535
C        -3.92631202794063    2.00742354467673    0.63782991971210
C        -2.56608773440309    1.75993376878949    0.55017162753983
C        -1.93012581232764    1.77964484360015   -0.68523282455554
C        -0.46641945717581    1.43829745645696   -0.85498544515307
C         0.41094645743954    1.64703279632104    0.38544925045459
C         1.81955342019103    2.07569932279179    0.05155385053271
C         2.33943460392403    3.24066613475223    0.59713896850647
C         3.63475014037273    3.63195204068462    0.30686118601045
C         4.42277303605701    2.86056858145162   -0.52941277347289
C         3.91136005754743    1.69486803390262   -1.07433698283486
C         2.61723390652206    1.30306086569672   -0.78413670392587
N         0.42874324375404    0.32412875049978    1.01794222351275
C         0.68920452443168    0.22922843830380    2.35330445560883
C         0.79581244161578   -1.13241677170768    2.91111766805656
C         1.44304136662172   -2.23646648257141    2.42752114886405
C         1.41772559704797   -3.32785877328239    3.31497516134466
C         0.75091501086508   -3.02143365227639    4.46359982049566
Br        0.45292399507230   -4.17390252840896    5.90938150316135
S         0.16173613682226   -1.39985502231259    4.49356587415171
O         0.87148318217989    1.21731944773982    3.03405455187450
C        -0.19315753998588   -0.66582843455852    0.17404879649996
C        -1.56591260113560   -1.11160502185856    0.73753145552943
O        -2.35157938520511   -1.57129204561415   -0.22776293451926
O        -1.85535638601618   -1.09111369762205    1.89860734741056
N        -0.32295981155715    0.00044608876978   -1.09011283442413
C        -0.41465785575441   -0.54498096803084   -2.32747449230095
C        -0.22471402057532   -2.01780662282160   -2.39123611833666
C         0.88620303939152   -2.75601361139175   -2.09823229155904
C         0.72583728543489   -4.13184218819612   -2.35970383439224
C        -0.51244113111850   -4.40613787965432   -2.85392341445335
Br       -1.18186492192828   -6.09558402927017   -3.31644554665898
S        -1.49851710498675   -2.99445959842228   -3.02563356901419
O        -0.61973070552353    0.12289915729173   -3.31740455672234
H        -2.18835186866252    2.04955477109524   -2.78989892388535
H        -4.60264826399150    2.50111489985237   -2.63120682096494
H        -5.72382089068326    2.46364498325936   -0.42963817522931
H        -4.40719345255863    1.99012739707657    1.60450734099509
H        -2.01745253263796    1.55821452787303    1.45790624819986
H        -0.06669916315879    1.96121641601548   -1.72873570249567
H        -0.02270608121909    2.37364086324986    1.07884589244430
H         1.72967361521264    3.83691202432451    1.25886651401940
H         4.02997380448088    4.53932510999832    0.73808098507295
H         5.43397713703247    3.16428175963965   -0.75508071838680
H         4.52223478883048    1.08891775336552   -1.72718405035635
H         2.22382721340255    0.39426941635896   -1.21644293820306
H         1.96359263619408   -2.26303168781433    1.48617821299883
H         1.86801965224791   -4.28406770419972    3.12007667804903
H         0.40668482793756   -1.58028336285028    0.08091828699997
H        -3.21338652643364   -1.85420878182769    0.12171121197146
H         1.80681338584828   -2.33234628617445   -1.73586782936578
H         1.48349236691365   -4.87563061061742   -2.19469241690563
