66
 energy: -113.666502950478 gnorm: 0.000280068767 xtb: 6.3.3 (4ae9cef)
C         3.30398689792821   -2.65836158055320    2.72500007589697
C         2.97530957556562   -1.63963487887596    3.57218621211012
C         2.17535778604295   -0.58649857795099    3.10966317420460
C         1.72547277267363   -0.56870616099908    1.81910264692998
C         2.05162311486147   -1.59709548705736    0.90815792171134
C         2.85778326445195   -2.66783694297710    1.38669046622355
C         3.19991628705600   -3.72812517839669    0.52346691151038
C         2.76720030095773   -3.73396315041007   -0.77047980329138
C         1.98528723987678   -2.67690822818853   -1.25015312759342
C         1.62776171019562   -1.62182784450041   -0.44838722115889
C         0.76015743877870   -0.54961818382692   -1.06260448394577
C        -0.68403737560002   -0.54648172701135   -0.49182942734705
C        -1.74735208000397   -0.92259679405910   -1.50219280251299
C        -1.67268552723035   -0.42781661206577   -2.78317741340766
C        -2.61821713161345   -0.75967063489910   -3.76113099917446
C        -3.64173353123962   -1.60835251206877   -3.45664912786567
C        -3.77043997736261   -2.13522137148665   -2.15583045023562
C        -2.82817356780987   -1.78123162618749   -1.14771047598679
C        -3.03053228205851   -2.30540919398017    0.14902085387499
C        -4.07633449823047   -3.14359352056850    0.42048705940515
C        -4.98408412505686   -3.51000397700244   -0.58236592077672
C        -4.83432432208593   -3.00759736633862   -1.84259172602421
N        -0.87921813491703    0.82064757580662    0.02957346190171
C        -1.32832353687438    0.97232213203800    1.32697886382962
C        -1.14070403119922    2.31741511106791    1.92323740775982
C        -0.66557038347870    2.44032433828662    3.19831270887499
S        -0.49570247698935    4.07233684165967    3.67856266913762
C        -1.10188739921819    4.61265240368765    2.16416682722578
C        -1.39945922248774    3.58558894702514    1.33065308412125
O        -1.84328096826004    0.05929096844090    1.93221450873614
C         0.12552648524127    1.67876300596129   -0.55106603156911
C        -0.38940560980406    2.38949270939299   -1.83331911812501
O        -1.71567479915261    2.48922666573216   -1.90577702197596
O         0.35144981254711    2.85720375869372   -2.64421926310206
N         1.23800729264756    0.80605878503701   -0.81791561081015
C         2.53648321427257    1.18322742270398   -0.98344240615745
C         2.80226908539501    2.58313569463555   -0.54415841195059
C         3.17692583326859    3.59251477831534   -1.37321085823411
S         3.38884281274132    5.07377207022921   -0.53355817103968
C         2.99046317410419    4.32456600779699    0.96157496492175
C         2.70073004790514    3.00849461377984    0.81042459432300
O         3.38235552078514    0.42844788546295   -1.40318840157578
H         3.91670842920876   -3.48029149348598    3.06677163735664
H         3.32315707483499   -1.63760576069680    4.59448922973918
H         1.91492694658631    0.21666295055954    3.78474925987318
H         1.10887155957539    0.25493541557867    1.50192296134493
H         3.81189631254732   -4.53171228964711    0.90674108498731
H         3.02771979745604   -4.54295101959529   -1.43612374071314
H         1.66419938604843   -2.69462399724844   -2.28161600593962
H         0.74239967539097   -0.73324864747857   -2.14348814070347
H        -0.73273871154813   -1.22464192207060    0.36353463340892
H        -0.86696724970420    0.23071217078763   -3.07422289682414
H        -2.51719249017988   -0.34367452074781   -4.75172335879079
H        -4.36948576438524   -1.88781125009769   -4.20441163709487
H        -2.38152136787015   -2.02391002223192    0.96085730701639
H        -4.20888781577945   -3.52526374118549    1.42181830705829
H        -5.80015038387312   -4.17765286705166   -0.34907454481722
H        -5.53231294096393   -3.26607010835290   -2.62603732014227
H        -0.39948028867654    1.64418326707016    3.86473234498680
H        -1.20387776576088    5.66279578663244    1.97777301811110
H        -1.81415060379750    3.72881698485841    0.34908214585142
H         0.41983615644615    2.48725609807507    0.13338896026316
H        -2.14787283608772    1.92252242682342   -1.23994064245456
H         3.31247111526275    3.55193464214859   -2.43440674247010
H         3.00093909702373    4.90096767065764    1.86515562117362
H         2.45574698162737    2.34974206034833    1.62550837992929
