72
 energy: -124.404821914828 gnorm: 0.000502724955 xtb: 6.3.3 (4ae9cef)
C        -4.16760961657008   -2.08549780612376    3.53510635190217
C        -4.14215611475590   -0.88276384982827    4.18136301200297
C        -3.17596450672273    0.07167865233657    3.83591194142460
C        -2.26906312400398   -0.18272074898703    2.84445062900769
C        -2.27973771047773   -1.40571319244956    2.13979279701671
C        -3.24412174570189   -2.37961221478455    2.51060631404980
C        -3.26202594145764   -3.62677119646414    1.85222954088874
C        -2.35837841859133   -3.90030410485291    0.86872155923457
C        -1.42027897133383   -2.93379593481642    0.47798293070339
C        -1.38152421580381   -1.70147978173573    1.07454895712428
C        -0.37405130098264   -0.65849744125307    0.67741516175830
C         0.62765366568782   -0.97790529125687   -0.45125366377056
C         1.77318391270013   -1.85521769801771   -0.02119989817463
C         2.55589343341636   -1.42537900551815    1.02315794673317
C         3.60717856835032   -2.20410385317055    1.51909587109904
C         3.86692620076283   -3.42627926699549    0.97054513763392
C         3.11126361217568   -3.89490666485727   -0.12256910613473
C         2.05960948588564   -3.09587187201708   -0.65311950396988
C         1.37981787617538   -3.58508979165264   -1.79113007271141
C         1.68930559471710   -4.79763771864092   -2.34126359957678
C         2.69927543798029   -5.59697042615644   -1.78886852909999
C         3.39916702180539   -5.14645569698838   -0.70723214333363
N         1.07545655286523    0.37503053009681   -0.80465258926721
C         2.19534838258645    0.63577207764059   -1.52236934782016
C         2.49235635600037    2.10500080778889   -1.62643096818046
C         1.85042342359567    2.90839115611353   -2.56005527698198
C         2.12401500306272    4.26317906582859   -2.62045432070220
C         3.04590729569332    4.80655470258779   -1.74388982993989
I         3.43296645717257    6.88495835351862   -1.79928443329363
C         3.71423944242740    4.01482812981761   -0.82710554420554
C         3.43708684755391    2.66010579883713   -0.77286682978787
O         2.89394043686552   -0.22361808961625   -2.00743036582688
C         0.15643443113227    1.38011556193944   -0.29664058207837
C         0.80327673034943    2.20175674867904    0.83228209734023
O         0.64585923608582    3.50693321606693    0.62638192791042
O         1.36229083720310    1.73899860905719    1.78603734444378
N        -0.95530487713384    0.60670526639718    0.20314523750782
C        -2.20775235953907    0.70737239698335   -0.35132845294556
C        -2.54055098094540    2.09270304320613   -0.80928333733553
C        -2.43020207659687    3.17046870911858    0.06291598386417
C        -2.77179822756662    4.44313838625356   -0.35471168580262
C        -3.22069111458611    4.63353649788551   -1.65023473618227
I        -3.70782542038841    6.58448989201318   -2.30204216265370
C        -3.35857602304245    3.56853395223792   -2.52325032596857
C        -3.02705203689257    2.29576061109574   -2.09533613317933
O        -2.99713509417092   -0.20379664516148   -0.41763876552260
H        -4.90003463360772   -2.83533919452484    3.79824098905067
H        -4.85567745615959   -0.66139962999500    4.96137885674876
H        -3.15131670354315    1.01505737948595    4.36254595050101
H        -1.53148056071999    0.56837395789589    2.60572806448125
H        -4.00158099245834   -4.35801219856253    2.14484870815591
H        -2.35952345350347   -4.85794203920747    0.36978170356789
H        -0.72653927822987   -3.18993477649081   -0.30514403154387
H         0.20922968616284   -0.40167493922695    1.57276594629785
H         0.09097522998925   -1.38938262394412   -1.31112684853240
H         2.37240976609746   -0.46128174288732    1.47551399952802
H         4.19895115910872   -1.83053858545970    2.34150128938966
H         4.66377284491582   -4.04694812428890    1.35434783084662
H         0.61565770327478   -2.99040602577269   -2.26798989770824
H         1.15654573849423   -5.14437477357682   -3.21479264292280
H         2.92530081856933   -6.55540940396600   -2.23222522843078
H         4.19572101701773   -5.74005839466320   -0.28159419628328
H         1.13838927691308    2.47558646003651   -3.24789957146564
H         1.62047985804621    4.88622878529983   -3.34329164730958
H         4.44470354704044    4.44526841071079   -0.15933143222258
H         3.95241207050693    2.03002201975039   -0.06341808169791
H        -0.16464219046761    2.08185523619098   -1.07630440792234
H         1.04698626712504    4.03023879573550    1.34165820011373
H        -2.09433982716659    3.00934425724747    1.07598888399147
H        -2.68840588376266    5.27742074113619    0.32428308886513
H        -3.72424229716698    3.72543494220456   -3.52625968843683
H        -3.14082707144834    1.45224559270527   -2.75925837422202
