96
 energy: -143.149338257315 gnorm: 0.000514868753 xtb: 6.3.3 (4ae9cef)
C        -3.42737504061919   -2.83246664324170   -0.37043983980632
C        -4.32119561379927   -3.36526407442190   -1.25289099325544
C        -4.10553358844596   -3.27504323923248   -2.64374312334216
C        -5.01155169524661   -3.80585077802558   -3.58442812268580
C        -4.77719720886351   -3.68282388170483   -4.92532590030839
C        -3.62656214591920   -3.02432586508363   -5.38651505068609
C        -2.72660247542918   -2.50422212393595   -4.49949370940869
C        -2.93967007340219   -2.61544804756076   -3.11008145669336
C        -2.03408577729113   -2.07835452453545   -2.17339582848907
C        -2.26288652453334   -2.18305460636821   -0.82687204178299
C        -1.36601887259060   -1.55344728116770    0.21201311631220
C         0.09866215832393   -1.35953448986176   -0.22157721821241
C         1.06902426064550   -1.50016432730099    0.92430572531178
C         1.99676082516201   -2.50817047719071    0.92330965513607
C         2.91661842816341   -2.65527610244849    1.97883801469296
C         3.90269437578374   -3.66379088048903    1.97650545572411
C         4.78076536953751   -3.78191919366142    3.01692636969173
C         4.70924979535388   -2.90317402100212    4.11007442860305
C         3.76883891079844   -1.91165731654507    4.13854891991974
C         2.85640049582726   -1.75541799902196    3.07419748902779
C         1.89431738549199   -0.72533971278795    3.05159792072178
C         1.03119888495578   -0.59396053424371    2.00254249833436
N         0.09317765821041   -0.00275160896963   -0.76186817541395
C         1.16303898248525    0.65486869073497   -1.24252365630365
C         2.43997001156876   -0.10445071258176   -1.30124645133424
C         2.59412926009757   -1.19346963070203   -2.14975581904556
C         3.80244455124579   -1.86129175281406   -2.16504169249094
C         4.84798950815983   -1.44921646645227   -1.35520749324582
C         4.72436880802652   -0.33910073000088   -0.52849794764950
C         5.86994749260208    0.19667937601126    0.31402900211033
C         5.43676647851765    0.29709191434567    1.78166659006910
C         7.11231352363676   -0.69565408156890    0.25270391727137
C         6.24206730737484    1.58905948967028   -0.21643528873376
C         3.50231982459906    0.32596117143709   -0.52131263514680
O         1.07162383136453    1.82594623108127   -1.61288313947720
C        -1.14118411135478    0.70597619315776   -0.41330668652969
C        -1.99133645451171    1.06306876776017   -1.67097449267587
O        -1.36534928667196    1.82160027981657   -2.54357367063683
O        -3.13082756425013    0.71380984636935   -1.78894958844553
N        -1.80453768761424   -0.19019149307650    0.48352719054123
C        -2.41839203164369    0.12789795854755    1.66088363630837
C        -2.66266647339254    1.58268489967496    1.87194500005390
C        -3.47354327815631    2.29664137412729    1.00170487619860
C        -3.72856835678306    3.65093380909706    1.19895065967393
C        -4.62287286715465    4.38340857567185    0.21235912069681
C        -3.99695243250662    4.29768021978221   -1.18715791839749
C        -6.00410319599276    3.71421960538186    0.20302371089402
C        -4.80554094768333    5.86108577133871    0.56975553744982
C        -3.13998383015246    4.26761167343174    2.29726787114181
C        -2.34207462688817    3.55544889795662    3.17860729555777
C        -2.10452162854884    2.20966533308622    2.98011728223385
O        -2.72469061783822   -0.72662798813902    2.46553677857375
H        -3.60530538698945   -2.88640430129565    0.69336165209692
H        -5.21376495096073   -3.85866357562424   -0.89598249832942
H        -5.89815635020830   -4.30818616674632   -3.22439234538263
H        -5.47750964894275   -4.08793293576900   -5.64115342564825
H        -3.46041413091242   -2.93078256093400   -6.44973034688973
H        -1.84198446669336   -1.99214999410989   -4.85121456307588
H        -1.16358960705667   -1.56538713739886   -2.55925211822057
H        -1.43807483191348   -2.11422539158290    1.15029881655222
H         0.36306639027887   -2.07842815435845   -1.00122565486240
H         2.04091167305242   -3.20568377048988    0.09886806630804
H         3.95035998184806   -4.33876254697912    1.13417294002094
H         5.53552765519127   -4.55433600011613    3.00868027682559
H         5.40715104810171   -3.01625892044148    4.92627589799465
H         3.71407282434313   -1.22825840450927    4.97352895691130
H         1.85385380487165   -0.03440119518464    3.88111032288361
H         0.30814144748836    0.20767580049390    2.00090253477678
H         1.78962061636447   -1.50100236803478   -2.80183246298839
H         3.93642782289604   -2.71099541913147   -2.81847163159377
H         5.77119781747910   -2.00311160093440   -1.39342511819949
H         4.56018579612787    0.92699601520732    1.90226968163607
H         6.24268086096996    0.72013845524928    2.37746602174380
H         5.20215083065047   -0.69041358226826    2.17076298717858
H         7.51388099676192   -0.74500092185235   -0.75665736449466
H         7.88422107580629   -0.28321273721414    0.89888077274549
H         6.88523619116801   -1.70123917466565    0.60029453160398
H         6.52977011067372    1.52937584258053   -1.26396919680015
H         5.40623672303628    2.27796887765695   -0.13263199709485
H         7.07846732040383    1.99370927460304    0.34902691758933
H         3.35482352211353    1.19676269517896    0.09881886683774
H        -0.90053025202183    1.66507349903803    0.07810163831225
H        -0.42257434811633    2.02885146263607   -2.26804697638479
H        -3.91747333946512    1.77262728632404    0.17042245469620
H        -3.93710659673473    3.27058336236716   -1.53464283528468
H        -4.59919193833994    4.85859833763045   -1.89822442807847
H        -2.99303992363565    4.71845082825715   -1.18111100471061
H        -6.66965119940716    4.24383446050937   -0.47507964077997
H        -5.93859773035277    2.68080074573759   -0.12453517166796
H        -6.43962989238553    3.73232867506555    1.20018656762240
H        -5.26868713834958    5.97376349540726    1.54747973190685
H        -3.85392776055212    6.38790290941900    0.56099160908350
H        -5.45514184879536    6.33222408874927   -0.16485013706218
H        -3.30130407669272    5.31572667918222    2.48912882291641
H        -1.90648635475418    4.05852949988993    4.02962357500487
H        -1.49470645696743    1.64303607408096    3.66833415219985
