78
 energy: -132.889502136641 gnorm: 0.000388347612 xtb: 6.3.3 (4ae9cef)
C        -2.98452749340667    0.96868850041272    0.82370250449550
C        -4.14308152502024    1.62144807832064    1.12805343490363
C        -4.55533235190345    2.74532294087987    0.38197694199732
C        -5.74840863756627    3.44047979792871    0.66651639549374
C        -6.11777591939534    4.52571405085425   -0.07783105540530
C        -5.31020787585275    4.96570079304423   -1.13846331668119
C        -4.14726730265330    4.31338122881493   -1.43814675615825
C        -3.73951512881988    3.18846302615124   -0.69140094220544
C        -2.55249998646185    2.48773801673790   -0.98440988483219
C        -2.17956010554127    1.39484546020016   -0.25051974382968
C        -0.90088798973480    0.66280630818883   -0.55141056121472
C         0.16495128281179    0.89043042240651    0.53596419425769
C         1.20881412677949    1.89443066728821    0.12699651626420
C         1.27602699648000    3.11785512890711    0.73675143662491
C         2.25132880457458    4.06349647371522    0.36217616391309
C         2.34274505444440    5.32831870708077    0.97952933798494
C         3.30958444091280    6.21887616809037    0.60572889761198
C         4.22788899056817    5.88729500293325   -0.40297577133087
C         4.16295681221172    4.67081560394814   -1.02274690042360
C         3.17738355103516    3.72990326706247   -0.66017350678069
C         3.07815243150309    2.46587844110955   -1.27864048717172
C         2.11686823143763    1.57301925691268   -0.90145608790131
N         0.73559257959805   -0.43525889568158    0.74821498384383
C         1.70818446754916   -0.64370745555844    1.67393411707878
C         2.18512313551501   -2.05900256453799    1.70297557793383
C         1.65654477811312   -3.06374923483850    2.43577249419489
S         2.42781139271236   -4.59180049723564    2.17698205337726
C         3.52417531480292   -3.87148255264992    1.03273900340680
C         3.27941086500099   -2.49310251362453    0.88554103256753
C         4.06626642534642   -1.74589823265202    0.00747369408689
C         5.05816349583289   -2.38044861342099   -0.70592793713593
C         5.28522212533914   -3.74938386848500   -0.55706854019402
C         4.52670709719354   -4.50539794108462    0.31314837255229
O         2.16023331901629    0.24336317040853    2.36007489522902
C         0.02570986985236   -1.47251477059899    0.04372197440680
C         0.90199355231865   -2.12686938423144   -1.04740994538345
O         1.01803880174982   -3.43760824882539   -0.85538398342798
O         1.39759993632232   -1.53685799085091   -1.96485810512807
N        -1.09261096104137   -0.78455181893595   -0.55401211731039
C        -1.99817383925789   -1.35702243963142   -1.40012975156063
C        -1.95052652533783   -2.84570773800708   -1.41467551604995
C        -1.70047852306669   -3.54557784733424   -2.54686962087806
S        -1.60234552492991   -5.25251716931161   -2.30409080399193
C        -1.94485185357934   -5.05460922430396   -0.60817047419999
C        -2.12802228132562   -3.69996173354011   -0.27562854709085
C        -2.45877744311251   -3.36844013289706    1.04052723149237
C        -2.55463450577355   -4.36513272175775    1.98554102839412
C        -2.33665441978726   -5.69983090319855    1.64417641797112
C        -2.04151908755701   -6.05695294064593    0.34536438583549
O        -2.76052786355028   -0.70287068693223   -2.07446127360905
H        -2.67497119306375    0.10985697956915    1.40289809493913
H        -4.76312365337082    1.28513541490953    1.94699082187312
H        -6.36706097758511    3.09761355879702    1.48384095407095
H        -7.03436729517971    5.05269567510903    0.14364451404093
H        -5.61825781486867    5.82479847724708   -1.71633136925129
H        -3.52305190550842    4.64684275405197   -2.25463817589186
H        -1.94011186270115    2.82304798555268   -1.80906539751365
H        -0.51840444575680    0.97907298840788   -1.53116352868497
H        -0.30563231088321    1.22353396081681    1.47123067815319
H         0.58194870218941    3.37194753762728    1.52519385263809
H         1.63470961761637    5.57763828580212    1.75682119912870
H         3.37580029781697    7.18509655815872    1.08433620680637
H         4.98688655852188    6.60290337990455   -0.68374069677838
H         4.86774409627012    4.41105743875318   -1.80003255993125
H         3.77919999424307    2.21387617908409   -2.06179116472057
H         2.04689463634208    0.61096754527895   -1.38813214332536
H         0.84174513345929   -3.01341232583277    3.13212401339547
H         3.89220136686426   -0.68538356962166   -0.09419041722836
H         5.67167947455983   -1.81343683192715   -1.38906733901793
H         6.06988577175043   -4.22290018635437   -1.12741926129014
H         4.70352210116974   -5.56222429703101    0.43821442807956
H        -0.30056017133328   -2.27034556971227    0.72771306641982
H         1.56852042970831   -3.85150387708953   -1.54141088185085
H        -1.53803481056929   -3.14609515697057   -3.52923317626380
H        -2.65338684376839   -2.33783900236296    1.29883144224681
H        -2.80619038282654   -4.11404628972358    3.00512642791954
H        -2.41177460706961   -6.46247257285134    2.40388346884136
H        -1.89110064038634   -7.08844043021323    0.06864548716580
