66
 energy: -122.134179196813 gnorm: 0.000282539799 xtb: 6.3.3 (4ae9cef)
C        -3.62457746057815   -3.53809188694708   -0.20899884207656
C        -2.97511259883547   -4.35584575695839    0.66993082322543
C        -1.75908877221094   -3.94391693628487    1.23256379038460
C        -1.22413826126535   -2.72452886496567    0.92404790009587
C        -1.87459690322357   -1.84327207299539    0.03118453883750
C        -3.09639756302049   -2.27676917910429   -0.55651855305767
C        -3.76647768645211   -1.44612329103800   -1.47760894023386
C        -3.25054389535539   -0.22924600212631   -1.81937924141692
C        -2.06338614392499    0.21731974772152   -1.22813505113588
C        -1.38946340865002   -0.55006128937022   -0.30770346713762
C        -0.16129926567853    0.05148397267609    0.33940454713556
C         0.97781850936473    0.33427621898531   -0.66902442724108
C         2.28571370072299   -0.27063153083972   -0.20360485656049
C         3.26974718258813    0.51380620404910    0.33919443811409
C         4.46625844012433   -0.04266896990247    0.81278943814649
C         4.66571997950480   -1.39106569039037    0.75653292828693
C         3.68040300167526   -2.23754978488415    0.20709394186057
C         2.47403038122361   -1.67708163776231   -0.29491940240907
C         1.51878884706528   -2.55158795595328   -0.85809114021761
C         1.73287111990994   -3.90164992894180   -0.89671435939827
C         2.91542739847554   -4.45225725757908   -0.38339471470955
C         3.87064686543327   -3.63408747626007    0.14923250704401
N         1.04386492544816    1.78223892377116   -0.75309644483002
C         1.54168739843747    2.36615975553396   -1.87478584353236
C         1.71131411293205    3.83767160614278   -1.79045960668607
C         1.29504566508015    4.79084185464205   -2.67834652897588
F         0.51674692901673    4.52816911227062   -3.72815735470474
C         1.71563368821653    6.10341589863878   -2.36663712258588
C         2.48692098715022    6.12578623359063   -1.25093843198246
S         2.69265255166261    4.56634107693273   -0.56589943856179
O         1.88190122990211    1.72583488232682   -2.84383204409149
C         0.36167044894755    2.42416413477767    0.33758839961505
C        -0.54676301691058    3.58461032209239   -0.13619629172435
O        -0.23029514944964    4.73332363606534    0.45038438661623
O        -1.35765110252402    3.46413511314697   -1.01167612467649
N        -0.46600210624817    1.36783909533823    0.88752893100198
C        -1.59690677114286    1.72788142985492    1.53114547841901
C        -2.42709906796293    0.62751109268912    2.05902258454689
C        -2.07343543264630   -0.40644648257861    2.88217366052323
F        -0.81867679918656   -0.59434188148736    3.32063173215511
C        -3.13638082649587   -1.25525054994174    3.24767990443889
C        -4.30341902926364   -0.84355592446625    2.68808912326868
S        -4.12223240161705    0.57917474391495    1.74649553021857
O        -1.88727667218737    2.90358781274932    1.67810900630061
H        -4.55633106611120   -3.84522340317697   -0.66186576833340
H        -3.38478625579590   -5.32064153521288    0.92943169325147
H        -1.23904498102996   -4.60025527184142    1.91449598605995
H        -0.27921619709234   -2.45180120447512    1.36691690871474
H        -4.69325764343331   -1.79484965772890   -1.90926179782011
H        -3.75293456646145    0.40647287292533   -2.53150422146888
H        -1.69725116019041    1.19960468366956   -1.48742989543820
H         0.22304149753430   -0.58206874725525    1.14284729722361
H         0.73738099462592   -0.04192057985067   -1.66982615122808
H         3.14120065219081    1.58433938916473    0.40334626741083
H         5.22029780907420    0.60954588666591    1.22708787762237
H         5.57909341131228   -1.83118227619833    1.12952034444666
H         0.60409232450685   -2.15610373392312   -1.26933111488733
H         0.98524115524106   -4.55161720756270   -1.32690966783865
H         3.06655475307373   -5.52095074903020   -0.42020356482690
H         4.79221156402846   -4.04375389183605    0.53750404369912
H         1.45433850134594    6.96095683090388   -2.95801706612988
H         2.95709890035092    6.96874815819905   -0.78640117926215
H         1.04889213128141    2.81086194230601    1.10977581993719
H        -0.87295213590930    5.42038166214826    0.21288843795758
H        -3.01754284278072   -2.11366708409640    3.88119968715944
H        -5.26976987384637   -1.29641960089549    2.77902670146654
