78
 energy: -128.014516305457 gnorm: 0.000311530285 xtb: 6.3.3 (4ae9cef)
C        -1.26524019413738   -4.22949241334384   -3.29529715888615
C        -0.60940059546158   -5.03537110858149   -2.41002112852360
C        -0.21510994203732   -4.52312098381493   -1.16633343369220
C        -0.47821806109558   -3.22440711297590   -0.83129778505628
C        -1.14088784009603   -2.35438984922216   -1.72555171949298
C        -1.54224649493996   -2.88114268956716   -2.98519599877154
C        -2.19996416616517   -2.05069121577944   -3.91507914447177
C        -2.43370321375369   -0.73749094944882   -3.62657980790143
C        -2.02118576744870   -0.20762694239147   -2.39872309553066
C        -1.41008192169885   -0.98635528076129   -1.44880788643365
C        -0.93367072074986   -0.35709502947827   -0.16642855732932
C         0.47314417654883    0.25458420043595   -0.37326461421023
C         1.59024953837392   -0.75020509415773   -0.27876379706417
C         2.18711217315288   -1.13351330340465   -1.45539232621239
C         3.20835842019509   -2.08890040931652   -1.48736876420160
C         3.63661597059018   -2.66834825436895   -0.32842321100543
C         3.04255101271078   -2.32518589128239    0.90209753366389
C         1.99793752351276   -1.36015538084964    0.93683296703733
C         1.41251879181089   -1.06837413409607    2.18642457129565
C         1.83390348063414   -1.68082064250388    3.33332573178253
C         2.87230391928245   -2.62177123726926    3.29607866755401
C         3.46139180715438   -2.93410257013486    2.10414014397128
N         0.49060474079438    1.38041019607668    0.55596283597377
C         1.39772821052064    2.40391258960415    0.49861269832978
C         2.70358544796438    1.99482022379535   -0.07189246794213
C         3.10909549086645    2.06870594731436   -1.37525098249669
C         2.42280396631861    2.59388054366757   -2.58580294944310
O         4.35657050162030    1.57238286408078   -1.49519467469620
C         4.75896864975821    1.19290046327537   -0.26589183522064
C         3.79228919263985    1.43043959114947    0.66270580454114
C         3.84957443045307    1.21513510454384    2.13409164997218
O         1.13895931780763    3.51154600354832    0.91391230255510
C        -0.84888708542175    1.65181222588474    1.04294829370854
C        -0.93234283385838    1.37740419141017    2.55919175272549
O        -1.98252014744523    0.62008642790060    2.88231345839625
O        -0.15871300835710    1.81048523824593    3.36469407745660
N        -1.70434334660542    0.80866720840815    0.25084547927721
C        -3.06774631611325    0.74613671650539    0.39218911312102
C        -3.70854705146545    2.00665552169667    0.81654842064742
C        -4.70652413547293    2.09174410771270    1.75550693369022
C        -5.33015550406987    1.04437826410808    2.60140264064679
O        -5.11018922764628    3.36680230529197    1.88527685019214
C        -4.40147897461484    4.10630166493935    1.00876714358704
C        -3.51749565779540    3.33724393491938    0.31619486680718
C        -2.60582777111578    3.79586183864209   -0.77181786382049
O        -3.69222359340074   -0.26233764963444    0.13818057851131
H        -1.58192779357536   -4.61040191152356   -4.25590855048516
H        -0.39557719978570   -6.06484703366100   -2.65667572514488
H         0.30051306488144   -5.16394364655367   -0.46615229567799
H        -0.16089178407551   -2.87115745538948    0.13655312114177
H        -2.50809394891747   -2.47241478805597   -4.86093338922070
H        -2.93209869054134   -0.09631273966418   -4.33831672416826
H        -2.20717922673613    0.83670117435493   -2.19686759124269
H        -0.92908068430256   -1.09572288431889    0.64307959041948
H         0.49532076701598    0.66522646811665   -1.39479119492089
H         1.86208796346358   -0.69226180282046   -2.38664158561110
H         3.65122833535551   -2.35633250623172   -2.43462795108243
H         4.42860840413050   -3.40294926784045   -0.33618537452984
H         0.62498430141327   -0.33816774188307    2.23811878577675
H         1.37187261988544   -1.43447702209845    4.27777705557226
H         3.19905900712974   -3.09299896657292    4.21111396114135
H         4.26149239321712   -3.65925429462952    2.06010683259437
H         1.52802280311177    3.13535929503570   -2.29177151850879
H         3.08566338287853    3.26847223498489   -3.12473079590831
H         2.14885023703813    1.78464038755289   -3.26354892941036
H         5.74116462842754    0.77397552265071   -0.17918532225619
H         2.86431637384135    1.34394940794831    2.57362504389047
H         4.52298383138573    1.94005689464935    2.59029756233153
H         4.21757037364314    0.21717821831014    2.36434057826068
H        -1.06100129400875    2.72471756692165    0.92799513583745
H        -2.03264392310302    0.49248778870457    3.84361234691203
H        -6.41227215998040    1.06921072854026    2.48530689020084
H        -5.10120116854172    1.21092160207928    3.65374783354261
H        -4.95889093988543    0.07246730245749    2.29246952015229
H        -4.61501796754702    5.15545514379599    0.96506529632038
H        -1.76889073850654    4.36866156675765   -0.37021640425996
H        -3.14594639504831    4.44278567046303   -1.46061938369344
H        -2.21258676399834    2.94757585714849   -1.32590513102126
