78
 energy: -124.145401126654 gnorm: 0.000682313523 xtb: 6.3.3 (4ae9cef)
C         3.82063581330996   -3.30202557258977   -0.78941810476187
C         3.15674917891559   -3.72305166123309   -1.90493518249993
C         1.94404326735985   -3.11749602893248   -2.26160792661320
C         1.42771533134417   -2.09748720864807   -1.51383975623346
C         2.09043469294142   -1.62635770754175   -0.35931411703503
C         3.30722191870398   -2.26122289621291    0.01251888597914
C         3.98079070055678   -1.85578368123275    1.18226888514102
C         3.47172592258054   -0.86329527130363    1.96901559279670
C         2.28502307692627   -0.22090294666096    1.59928025015764
C         1.60768064106593   -0.56823220444508    0.45690461251213
C         0.35353453945530    0.18471506400327    0.10292012639159
C        -0.88103339681287   -0.25401702091597    0.92821143047413
C        -1.63162364835511   -1.32740667117721    0.18417742959993
C        -2.60225987162304   -0.97178054550593   -0.71780805800820
C        -3.26076469675307   -1.93037274770059   -1.49765957564158
C        -2.91251894625324   -3.24636795086563   -1.40029526122034
C        -1.90008774841549   -3.65496744046501   -0.50822855133531
C        -1.25344818217699   -2.69168674053579    0.31503946028183
C        -0.24881122285485   -3.14809823347357    1.19669546821848
C         0.11563972209960   -4.46457707187885    1.23793635134310
C        -0.51284207835945   -5.40651397182429    0.41219076179665
C        -1.50719839598608   -5.00784254622343   -0.43378082140198
N        -1.62910793597132    0.99166534869772    1.07365188604238
C        -2.82152729233571    0.98379368261146    1.76724922926208
C        -3.48927799623392    2.30903635702486    1.88094771161088
C        -4.06780294136146    2.66960548092122    3.09138031206807
C        -4.71790038799810    3.88460250559042    3.20373611589877
C        -4.81040421034274    4.72999036328118    2.11171904212402
C        -4.26065405187212    4.37148364141833    0.88647493736122
C        -4.39240462482004    5.26795636864210   -0.30730747384504
C        -3.60107870330073    3.15478229945814    0.78322344597412
O        -3.31695024499921   -0.04698356005618    2.16350959658131
C        -0.67390814810260    2.06833312710915    1.15022299876009
C        -0.28335385202815    2.34680754348728    2.61731806994473
O         0.93388484437676    2.86327633199155    2.72758764443301
O        -1.00878206991032    2.13199519477591    3.54758681631303
N         0.44327773071139    1.61473672631226    0.36092508411236
C         1.24442713033740    2.48636054854769   -0.31210829765777
C         2.32262268489701    1.79903058035839   -1.09152079400527
C         2.05994774818097    1.23396130303444   -2.33184350852610
C         3.04053577637117    0.52367576836349   -3.00953901972293
C         2.75861500717322   -0.10534430009645   -4.33922796754937
C         4.29748896708817    0.40117611859861   -2.42948810314635
C         4.57589556800864    0.99570133698298   -1.21293330543928
C         3.59230409939204    1.69792828309061   -0.54036150744619
O         1.09747219425602    3.68675752375600   -0.23362880270095
H         4.75114788531562   -3.76599942513593   -0.49484800203317
H         3.55348150744864   -4.52327001398073   -2.51197031567653
H         1.41306030464810   -3.46552200594667   -3.13534840554476
H         0.48445113879294   -1.66872835234309   -1.81196048546048
H         4.90308265491623   -2.35185207677410    1.44784452782259
H         3.97977112576321   -0.56046320208955    2.87249478037888
H         1.90923251755634    0.58155405309962    2.21608327993175
H         0.12107926416689    0.04763830931541   -0.95822874303071
H        -0.58002531296670   -0.60823217292602    1.92233634355003
H        -2.87431481987267    0.06736484928466   -0.82743712971389
H        -4.03461549719921   -1.61423218296409   -2.18136633938990
H        -3.40087089915955   -3.99402888512180   -2.00867015775079
H         0.25169827888292   -2.45401648712146    1.85249042162639
H         0.89428355095957   -4.78589962518798    1.91411476500445
H        -0.21165310986438   -6.44265965103840    0.45767073060665
H        -2.01088676111054   -5.72433248183144   -1.06724245810601
H        -3.98440720773002    1.99897383764680    3.93143169563882
H        -5.15786885953301    4.17470565771364    4.14635323554949
H        -5.32107714895216    5.67776346176760    2.20660434850248
H        -3.53497371240846    5.16358509478753   -0.96861356941334
H        -5.28815184927855    5.00646795363320   -0.87193580769681
H        -4.47822108790077    6.30833201289642   -0.00264606599341
H        -3.19040595335145    2.85543311597607   -0.17180700314481
H        -1.05356942579514    3.02114523322063    0.75150478019065
H         1.13142104720251    3.09744471430369    3.64998464908930
H         1.08065056068984    1.34807259451634   -2.77651272759391
H         3.13649967365763   -1.12600582197229   -4.36180128339615
H         3.25433969988146    0.45469050726484   -5.13249631211217
H         1.69151322531642   -0.12105953167899   -4.54665793097193
H         5.06343274658670   -0.16309546395931   -2.94150542580047
H         5.56107010085967    0.90413956082357   -0.78059594892414
H         3.79689945330370    2.15652990526994    0.41487954346371
