78
 energy: -134.525750390580 gnorm: 0.000206049170 xtb: 6.3.3 (4ae9cef)
C        -2.30717829018802    3.16611821957078    1.80548977480954
C        -2.54402775900828    3.38395686036607    3.13144939725777
C        -2.25957352289468    2.38941454794092    4.09067094516134
C        -2.47966290000740    2.58556455371353    5.46919906391999
C        -2.18367206073522    1.60069024307425    6.36964701695585
C        -1.65416570444573    0.37635243554062    5.93296099310554
C        -1.43367103325611    0.15430726650281    4.60267268704213
C        -1.73086719989022    1.14952979091306    3.64930128114766
C        -1.50731062057664    0.95264402560525    2.27212687680107
C        -1.78203374141454    1.93698830424497    1.36116376116619
C        -1.46465408753729    1.77882907453209   -0.10708071839638
C        -0.02507101312296    2.25204144052674   -0.36926985015006
C         0.31264298310917    2.66808953318634   -1.78153637514074
C         1.56988188812317    3.17236831567224   -2.00756462539105
C         1.99389819282596    3.53684848701487   -3.29853383340677
C         3.28300795204599    4.05482310603823   -3.54622306119960
C         3.66226436637298    4.40035411445686   -4.81227386936363
C         2.77277388864637    4.24496343958609   -5.88835250995535
C         1.51812302642597    3.74523638210738   -5.68128433450847
C         1.09556613010261    3.37921313358567   -4.38616415976424
C        -0.18876049752480    2.85982464135296   -4.12950356866036
C        -0.57287423455608    2.51113707098535   -2.86413018964780
N         0.72285993044321    1.03826477553143   -0.03980225739032
C         1.53894151305542    1.01454653789045    1.05816717324815
C         2.05683979394025   -0.32130979695946    1.43189625629455
C         2.54516936156848   -1.33941085820573    0.66450259945860
C         2.98162622577429   -2.34443348837143    1.57622736390421
C         3.55927719436346   -3.60784250259421    1.45052812920542
C         3.83734495913751   -4.30984000821713    2.60143648434584
C         3.55277506654220   -3.78345079551372    3.86502770144880
C         2.98172917616049   -2.53691830698256    4.01788371560053
C         2.70562561208515   -1.82527734409170    2.85943047450377
O         2.15317481303958   -0.59836232213735    2.75966263679732
O         1.85287198459514    2.02791102085087    1.64229992531155
C        -0.02311382586296   -0.06193577459782   -0.58805692905393
C         0.44142222946546   -0.33041042083647   -2.03622309836292
O        -0.56495214918287   -0.47803911766711   -2.88446942406007
O         1.59699028430399   -0.43449747915693   -2.33851118952716
N        -1.40190050797064    0.37601796647085   -0.50187978371433
C        -2.52468494228029   -0.30652168116447   -0.84156300074511
C        -2.33585410832646   -1.76625249346415   -1.06826371280767
C        -1.77245506288786   -2.71715844317661   -0.27041800623010
C        -1.97355644884756   -3.96326065451909   -0.93319564121400
C        -2.66842068956430   -3.63951428199958   -2.11698788300363
C        -3.03860375096289   -4.60568882857275   -3.04075097754171
C        -2.70184948035762   -5.91181487069784   -2.74998837272972
C        -2.01565219945929   -6.24837478291743   -1.57997650315040
C        -1.64459982691352   -5.29082390119176   -0.66299074883465
O        -2.88762481791264   -2.30884709765568   -2.18137863196933
O        -3.60806957690662    0.23123517694540   -0.91290673175811
H        -2.52052730152373    3.93523394457072    1.07736734464018
H        -2.95068713817438    4.32731409829553    3.46622790584379
H        -2.88462706929910    3.53105852205127    5.80071539229206
H        -2.35281913657356    1.75756110807453    7.42494484405991
H        -1.42252727851855   -0.38895314728362    6.65940277150588
H        -1.02278379149255   -0.78612040258327    4.26296451128723
H        -1.11741071207790   -0.00417626106238    1.95416783799935
H        -2.21423886990971    2.30313866547301   -0.70358081443047
H         0.28046435970303    3.03139231938746    0.33547454820071
H         2.25487801161855    3.28762323556375   -1.17977034778892
H         3.96200597157998    4.17117496864488   -2.71419382861767
H         4.64995420900127    4.79652659947411   -4.99689354865195
H         3.09095124949563    4.52474381189434   -6.88197169145370
H         0.82976371535953    3.62458480550496   -6.50585526892515
H        -0.87494988364049    2.73806584244101   -4.95578761242418
H        -1.56089306204234    2.10609433999713   -2.70847250177583
H         2.61868881876950   -1.35231985537621   -0.40428856283928
H         3.77917477399450   -4.01355582421629    0.47521760263018
H         4.28640761582990   -5.28941850177766    2.53375805070276
H         3.78836459288341   -4.36792993510099    4.74136752902624
H         2.76198334271921   -2.12147403657591    4.98793713278297
H         0.17012330617989   -0.98359268342485   -0.02331255924982
H        -0.24609126885775   -0.64094126144638   -3.78762203405611
H        -1.30809265728721   -2.57340307476877    0.68477783216478
H        -3.57127359287851   -4.33838792631676   -3.93889790109472
H        -2.97568238789133   -6.69471331117683   -3.44068146308161
H        -1.77492956768351   -7.28464448972675   -1.39586568780389
H        -1.11517476877366   -5.55216276404131    0.24040724921179
