84
 energy: -149.314003549082 gnorm: 0.000516386513 xtb: 6.3.3 (4ae9cef)
C        -2.71251325293438   -2.09497458129432   -0.43131166807798
C        -2.46316115382081   -2.73503968426420    0.90699582663484
F        -3.35245102090157   -3.69221205375228    1.19972096248665
F        -2.50410582431240   -1.87606681205749    1.94111867836322
F        -1.25247832124301   -3.32633378880904    0.97595602926825
C        -3.76863611872431   -2.57054758127450   -1.19990310043285
C        -3.99782372653910   -2.06292554142134   -2.46355231853513
C        -3.15604650291053   -1.09148858215276   -2.97515314055896
C        -2.10923220229761   -0.61619007191334   -2.21091800747108
C        -1.87977879107229   -1.08918473466824   -0.92330334584282
C        -0.71091874860086   -0.53507626311462   -0.15254478035983
C         0.63150933528928   -1.03261608825436   -0.76515350071624
C         1.24863222549858   -2.19165652278845   -0.02525228398712
C         1.34875992197435   -3.47224690441483   -0.57216994186353
C         0.77503889805088   -3.79126726100228   -1.92500452236799
F         0.91178712824781   -5.07963793476375   -2.26083818626569
F        -0.55680136347048   -3.54283213932095   -1.98601088155310
F         1.31337705220574   -3.08989786618148   -2.93502733268891
C         1.95410008235819   -4.49671714188702    0.14430280903900
C         2.46138228513505   -4.26020987068974    1.40788169385076
C         2.35457507273378   -2.99860799977667    1.96452759594317
C         1.75408956524080   -1.97837856713371    1.25168670751035
N         1.49629187475439    0.14479580257724   -0.71995407139933
C         2.74980783370681    0.09822187219931   -1.24814408855573
C         3.45456389851855    1.41839369761924   -1.31654691297624
C         3.02518831786868    2.40410703531165   -2.19941758728942
C         3.71431539198776    3.60119437097341   -2.26673588402237
C         4.81678755884624    3.81966048680397   -1.45745805488613
C         5.27006292980889    2.83963042304018   -0.58329184451184
C         6.48047808295122    3.07496516216735    0.28282650264464
C         6.13006664524151    2.91960920582945    1.76462097819854
C         7.61244395736475    2.12434653976118   -0.11384153106625
C         4.58124853919326    1.63193743083394   -0.52960998015045
O         3.24614675954919   -0.94120186674425   -1.62172241998654
C         0.79672144638162    1.27699046948492   -0.16097366018415
C         1.15642135368840    1.49210874106204    1.33871049431707
O         2.40045814226403    1.89191179634612    1.58071613107790
O         0.36485323932439    1.29613309346883    2.21219148971749
N        -0.59046668884134    0.91011759456345   -0.26258175376736
C        -1.52919404686055    1.89199726141412   -0.40431638863872
C        -2.95333957632818    1.49309977923138   -0.26949638146162
C        -3.40567421459238    0.89082869895979    0.89747202007682
C        -4.74841376269999    0.57655435461287    1.05832522326390
C        -5.23584130899529   -0.03489619320993    2.34815197545798
C        -6.03291116772839   -1.31700933160649    2.10437536227451
C        -6.07777326151926    0.98617795701954    3.11817480867874
C        -5.62826653581716    0.87141116897795    0.02283575094661
C        -5.18592324059927    1.49070174308488   -1.13217777530769
C        -3.85190051908706    1.81980238834605   -1.27758574791752
O        -1.18148986171940    3.03460761519552   -0.63242222663448
H        -4.40524479972111   -3.34863919938271   -0.80901394422938
H        -4.82095430020940   -2.43822918793829   -3.05050151826273
H        -3.31211828374969   -0.70596953611090   -3.97071040053109
H        -1.45598750231362    0.14366206257350   -2.61306038129393
H        -0.74688059106913   -0.81413013037546    0.90592545102381
H         0.48155795821918   -1.28800042133412   -1.81882926512951
H         2.02647374427835   -5.48099027191505   -0.29099908340496
H         2.93267043967155   -5.06155787432636    1.95494166549262
H         2.73705243995615   -2.80476635448647    2.95492107026502
H         1.67353743972664   -0.99899260397225    1.69816910515822
H         2.17425891364841    2.22610595898947   -2.84001211378572
H         3.38958780344204    4.36816269640514   -2.95301714759403
H         5.34051909256260    4.76246994354594   -1.51566727131889
H         6.82234406682688    4.10236132817316    0.11785517506537
H         6.98802212019610    3.18385664934951    2.37791847419317
H         5.30099769080937    3.57082020255087    2.03303670488771
H         5.85059819916820    1.89511495961415    1.99569761027245
H         8.49851988824548    2.32837722601381    0.48245879010309
H         7.86451975678684    2.25204721507541   -1.16426703708276
H         7.32187950355227    1.08898282975677    0.04450325491408
H         4.92471335760141    0.83402451720760    0.11239459287101
H         0.97205497673162    2.21551274495523   -0.70554397836726
H         2.95849569456523    1.99820417474762    0.78512304461048
H        -2.70762597601874    0.69192572484078    1.69717547860393
H        -4.36150469723260   -0.28715327589888    2.95559436390573
H        -6.95277130094045   -1.11204817862994    1.56269802341048
H        -6.29369079022049   -1.77644019059306    3.05469468182052
H        -5.44665440081862   -2.02938791254382    1.52958933884992
H        -5.49677793564246    1.88459560102907    3.31300315894279
H        -6.96047988024014    1.26551111775151    2.54751835869545
H        -6.39913428471506    0.56778072801604    4.06915669901077
H        -6.67626392101405    0.63314144606320    0.12369337753342
H        -5.88755915574868    1.72921745478084   -1.91781466672819
H        -3.49812359304156    2.32233924974042   -2.16480233212452
