66
 energy: -121.768961143655 gnorm: 0.000338593936 xtb: 6.3.3 (4ae9cef)
C         0.92933751852410   -0.74021137101586    2.48562087583914
C         1.54822762553573   -1.37413832658361    3.52368198296943
C         2.57332994379439   -2.31464929286475    3.28918814769270
C         3.23307316089633   -2.98680696926449    4.33843908476546
C         4.22487115721474   -3.88946416427539    4.07397854805466
C         4.60252531035787   -4.16034924837427    2.74936005666106
C         3.98101228159388   -3.52599330875291    1.71061773804546
C         2.95348317646996   -2.58995400136256    1.94989617494740
C         2.29567125199289   -1.91801157545152    0.90031088622376
C         1.30318342932490   -1.01109306482533    1.15458476198696
C         0.59021170316549   -0.30568130659796    0.02954423875708
C        -0.91498387688431   -0.64494818396805   -0.01782152272136
C        -1.38396643695223   -1.03116904868126   -1.40477451920411
C        -0.78895910352792   -2.09878166925224   -2.02818489917202
C        -1.18448682900521   -2.50910370530684   -3.31547249663916
C        -0.58452823770132   -3.60559326035878   -3.97073928939089
C        -0.99397742408540   -3.98001538292155   -5.21915735981668
C        -2.02035578345960   -3.27724848087132   -5.87133382862399
C        -2.62163989125756   -2.21164193516691   -5.26325075173448
C        -2.22325993988769   -1.80069261160967   -3.97399943538418
C        -2.82849273003760   -0.71766802937483   -3.30658892462987
C        -2.42383671881687   -0.34409029956134   -2.05551377753511
N        -1.54305478502468    0.55562310295371    0.50093012774243
C        -2.76582346352102    0.52199992703931    1.09819326764172
C        -3.28038604250435    1.84191955904009    1.54739227086381
C        -2.82967610870812    2.64533798869232    2.55328311408892
C        -3.59731291526383    3.81671636812327    2.71444746082962
C        -4.62291533837951    3.87930928036048    1.82153041049391
Cl       -5.76913852485874    5.13366012347135    1.67435742336267
S        -4.67947499479647    2.50029153146936    0.77720395846527
O        -3.38032135902349   -0.51237972015685    1.23228878911788
C        -0.69950724583676    1.70157942680843    0.27476964062590
C        -1.11877818335263    2.38577539723661   -1.05018038137362
O        -0.29360551495970    2.09912445278276   -2.04745769289980
O        -2.10037776324271    3.06546635861029   -1.15312978790146
N         0.62009483360485    1.14381883792375    0.22317733493966
C         1.81896928462715    1.77914812697370    0.13574715454728
C         1.89535457532919    3.24114944419297    0.29735940273543
C         3.10007411740638    3.89579534939739    0.27542585069813
C         3.00306446886553    5.28752643168301    0.43338341240367
C         1.71000789358563    5.69678708071702    0.57189439295063
Cl        1.15193946375009    7.29287841077156    0.78765884371283
S         0.59186675504163    4.37589084013703    0.51624665323415
O         2.84113581299703    1.14406957344337   -0.05209196286803
H         0.14376316696490   -0.02254713595581    2.67613093524649
H         1.26008899858104   -1.16354755245897    4.54372550250044
H         2.93991021321324   -2.77457784741524    5.35681866825612
H         4.72670540612645   -4.40080506824074    4.88237970990397
H         5.38974496670223   -4.87525628825256    2.55956180580611
H         4.26937498630390   -3.72920809322942    0.68934148655949
H         2.59920262681829   -2.11981277878916   -0.11663527437821
H         1.08405841104827   -0.54255244009864   -0.91940557458712
H        -1.15423285502738   -1.46806932140657    0.66684092027674
H        -0.00689126595056   -2.65091142929612   -1.52567776392718
H         0.20378596965095   -4.14410046747318   -3.46457680275322
H        -0.53229795878544   -4.82127494005247   -5.71486656685719
H        -2.33107838105874   -3.58936393760491   -6.85754682759227
H        -3.41416943348604   -1.66924282936867   -5.75877689125495
H        -3.63091865829579   -0.18575769283510   -3.79717894268221
H        -2.92300198198386    0.47486525308940   -1.55944396873507
H        -1.99090172924175    2.40238022588559    3.18203061761141
H        -3.39957567265634    4.57233771076077    3.45148637094700
H        -0.82417171210385    2.43298444142030    1.08350135978796
H        -0.59448538461094    2.49928249870076   -2.87992106878878
H         4.02470511373299    3.36282123002167    0.14796905904425
H         3.84181162105891    5.95817580736769    0.44342687112684
