62
 energy: -117.758761882727 gnorm: 0.000424211913 xtb: 6.3.3 (4ae9cef)
C        -2.88900288277475   -0.05232827881439   -0.35680987287805
O        -2.08551602011127   -0.27808542951272   -1.44247701868068
C        -2.68071712238859   -0.55202567927839   -2.68809667372786
C        -4.26905976421228    0.08505312189561   -0.44401152268563
C        -5.02351663446801    0.33740308068803    0.68793209890145
C        -4.41080196885000    0.45545287136150    1.92035362034336
C        -3.03876511847791    0.30662286309387    2.01195814216165
C        -2.26149776478930    0.04550278918281    0.89296428544939
C        -0.77136703744476   -0.09067546831637    1.09119112617700
C        -0.04044080648021   -1.10781337170399    0.19445370575662
C         0.96083770656606   -1.89888671550297    0.99952891259996
C         2.26860099747794   -1.48381341813328    1.16747197477525
C         3.15897994123227   -2.22565116241922    1.92570569363832
C         2.73192103776703   -3.39478739338678    2.52358618036512
C         1.42210827143438   -3.82157776938014    2.37901247418450
C         0.52453338842332   -3.07639131698831    1.62525843203041
O        -0.78812551798531   -3.39347535040231    1.44367513142232
C        -1.27699927641968   -4.58689096998052    2.00748838839044
N         0.61802680230156   -0.28185006646108   -0.80941747507214
C         1.21087440566457   -0.85807608281436   -1.88219395763907
C         2.03077467816318    0.03621740603771   -2.74000842118604
C         2.03620092362351    0.04687367521479   -4.10575854990175
O         2.94468291884083    0.91507175184345   -4.57697177822840
C         3.55125355730228    1.44876571088993   -3.50775449150532
Br        4.89195284508927    2.70620251719487   -3.81391556179068
C         3.04321618845930    0.95772759603818   -2.34448961733628
O         1.11975726662941   -2.04640070859550   -2.11112011115872
C         0.40105087165346    1.12383821073924   -0.55423614285639
C        -0.62989266278930    1.77149113353962   -1.50855787795037
O        -0.34275887515544    1.53443911585465   -2.78743924695960
O        -1.49986215673268    2.51264587910897   -1.14855374704805
N        -0.06754985023686    1.15458812008946    0.79920820133207
C         0.38187131490657    1.94630683478095    1.80713936348925
C         1.20341193208426    3.11095476774656    1.39564025068084
C         2.36556239332389    3.51322669308650    1.99392026621860
O         2.83487846061883    4.63122116540395    1.42022505678260
C         1.95673742133202    4.96782571701116    0.46211154908644
Br        2.32293047429824    6.49669587106468   -0.53657925424810
C         0.93000374561046    4.07799156544282    0.38500173744188
O         0.12519942105806    1.72263260788853    2.97095522808695
H        -3.23416576188016    0.31174401727666   -3.07220395618417
H        -1.85400973458786   -0.78756713704250   -3.35767087174971
H        -3.35070853193127   -1.41410589625987   -2.62693189798917
H        -4.76712844476528    0.00600436394371   -1.39716756180255
H        -6.09384549158920    0.44567911239727    0.59635799694713
H        -4.99422609224123    0.66065664769118    2.80421250536616
H        -2.54944726070851    0.40194261649809    2.96951732752974
H        -0.59400951073860   -0.31472628334394    2.14848420922200
H        -0.73106431601057   -1.80673109223439   -0.28264281428043
H         2.60083454316270   -0.57154141095042    0.69401286117399
H         4.17805138847677   -1.89174596819466    2.04483008582895
H         3.41765289015230   -3.98516671679949    3.11245288527244
H         1.11248681970415   -4.73611017598296    2.85909371358072
H        -1.20007644035134   -4.57619004989623    3.09925896776767
H        -0.75363194145442   -5.46280448311195    1.61195261423801
H        -2.32701339030900   -4.63505071732522    1.72319519188825
H         1.44672820080634   -0.49282704799373   -4.81809560394149
H         3.38745526503900    1.19176753710587   -1.35795645989700
H         1.32252955140123    1.71100254961908   -0.67065566806100
H        -0.98473834141207    1.98059793929914   -3.36480406359691
H         2.93183806452239    3.08694097075020    2.79708731052495
H         0.07699703017530    4.12220934104820   -0.25871827030254
