78
 energy: -149.510243506313 gnorm: 0.000691381730 xtb: 6.3.3 (4ae9cef)
C        -2.96278466303525   -3.56212254810709   -2.81785520719873
C        -3.15163478530105   -2.44293663970039   -3.57674402097455
C        -2.69202030646955   -1.20367653520004   -3.11029950712896
C        -2.06897330989860   -1.10281219552965   -1.89711128567233
C        -1.87107162153592   -2.23467956363138   -1.07440496627942
C        -2.32084847993769   -3.49318527119089   -1.56312546325883
C        -2.11815557810517   -4.65617764843025   -0.79279117117209
C        -1.49470379745738   -4.58471329176734    0.41912653912065
C        -1.06970800602119   -3.34654191586712    0.91508204668226
C        -1.25281235638002   -2.18722508680365    0.20459809511105
C        -0.75754259886214   -0.90048949605834    0.81575635778517
C         0.46785514642688   -0.31735173489134    0.08077850560139
C         1.76078073485384   -0.62349769027846    0.79775519389231
C         1.94537722476940   -0.08449124539646    2.04899279155657
C         3.15228101446593   -0.24536760562692    2.73842174019180
C         4.18418487804631   -0.92496357291404    2.15679551261181
C         4.03006458090506   -1.51326099420465    0.88548393251364
C         2.78756276127731   -1.40213849098130    0.20014776023568
C         2.66223391985820   -2.05892903265290   -1.04407683379967
C         3.71378111384092   -2.73374856726075   -1.59897690825679
C         4.95087217304501   -2.79732263466243   -0.94278994631859
C         5.09823173148996   -2.20884903918094    0.28005582831416
N         0.19640297121763    1.11578717570038    0.04414671092335
C         1.09728852086002    2.12601156449532    0.00950031686340
C         2.46692746003338    1.75827335894173   -0.45413042993544
C         3.56155523565491    2.07206106089987    0.34364694930279
C         4.83114831044334    1.69335465632431   -0.04514914525751
C         5.00742438038724    1.02629991854544   -1.25121793175712
C         6.39082863601903    0.60757346079265   -1.65940582269107
F         7.12325723807748    0.17372624970739   -0.62140681101096
F         7.08836864291106    1.62070624408829   -2.20890476225340
F         6.39419241215557   -0.38116280801157   -2.56563471099091
C         3.92898780434197    0.77654651831117   -2.08776686213056
C         2.65822835661903    1.14029631165550   -1.68433320313218
O         0.76758588073562    3.25878301698003    0.31120849768420
C        -1.15486053930644    1.44496802643163    0.44994948405538
C        -1.10434649298658    2.40818029028988    1.65854822278677
O        -1.84159454614685    3.48915183724986    1.45359150849722
O        -0.53648151468121    2.14655376630510    2.68275642321014
N        -1.74566296871037    0.17332892053337    0.78162783004759
C        -2.97152954273789   -0.01338361023243    1.33851805763909
C        -3.87145242265019    1.18228752444840    1.26486599672439
C        -4.29053519502321    1.79924539877770    2.43663065603874
C        -5.12773065221756    2.89763031963343    2.37868758416574
C        -5.55664377152769    3.36658935056711    1.14359852759105
C        -6.47134502391846    4.55826768322464    1.10073643093099
F        -6.53692797863793    5.13067802937049   -0.10885618112574
F        -6.09206895288603    5.52136188086572    1.95856919677997
F        -7.73643039721446    4.23967371143178    1.43643420105948
C        -5.17442456385545    2.73096402676547   -0.02946897654073
C        -4.32887644640838    1.63937958311762    0.03463543880562
O        -3.31355316849981   -1.06872839695677    1.82183305761711
H        -3.30400863839937   -4.52604036733629   -3.16699281674684
H        -3.64695994670109   -2.50294079411535   -4.53427081493537
H        -2.83213625760963   -0.32256793127407   -3.72030781513142
H        -1.72192104925160   -0.13582944740113   -1.57217970002142
H        -2.46741235234211   -5.60185517008614   -1.18099638352051
H        -1.33535232086128   -5.47365203627635    1.01022025219983
H        -0.59689893997467   -3.30682712382088    1.88523477545587
H        -0.49908582046767   -1.10186102037502    1.86381391881517
H         0.48921598024298   -0.69618872322992   -0.94494635545768
H         1.16429125782309    0.50979760143069    2.50169078243914
H         3.26153899680167    0.19210400068386    3.71896351844267
H         5.13409346996291   -1.02627672870228    2.66061839305038
H         1.71913398264617   -2.05176034524242   -1.56894422326891
H         3.59448387047024   -3.22626500145795   -2.55242968705001
H         5.77455594363940   -3.31825616133326   -1.40588155478269
H         6.03942717821357   -2.26311985386211    0.80692492135129
H         3.40460056633468    2.59043562004646    1.27620289731337
H         5.68257686516113    1.90440002411522    0.58299130391708
H         4.08308705901230    0.28508354676621   -3.03559390001383
H         1.81553223409871    0.94489849159855   -2.32935987591346
H        -1.69140947558642    1.96497045457284   -0.35950673074445
H        -1.74961570750294    4.11773854950730    2.18797823937754
H        -3.95249297816047    1.41961721418597    3.38852480250623
H        -5.44748571206831    3.39295077041194    3.28274267719330
H        -5.53098557351731    3.09306560323078   -0.98134849636479
H        -4.03747307991569    1.12845155808235   -0.87117537561272
