72
 energy: -111.287588768570 gnorm: 0.000330390166 xtb: 6.3.3 (4ae9cef)
C         2.60710213089415   -2.03718526146630    0.99985070480862
C         3.37159810002189   -2.20914844686266    2.13963772630582
C         2.94947618580473   -1.67669416895226    3.34499559390866
C         1.75403324579721   -0.98068103148708    3.41024630104255
C         0.99092345197490   -0.80670322101029    2.27121677235655
C         1.41878950298486   -1.32331960417068    1.05424524464812
C         0.58872386580921   -1.11065238279120   -0.18581292074258
C        -0.79060827415743   -1.82051789915571   -0.09114766621284
C        -1.05510143535262   -2.71480335401075   -1.28208958494687
C        -0.15485853476993   -3.73781619057540   -1.55988915925036
C        -0.35452267911287   -4.57409031413026   -2.64220321308585
C        -1.46039264875864   -4.40142212361433   -3.45830382140741
C        -2.36845689399536   -3.39689108616011   -3.17658668915325
C        -2.16969121238437   -2.55876570010613   -2.09191305141502
N        -1.73662889740816   -0.72973637514832    0.03936368525993
C        -2.88984218042488   -0.85624082868321    0.75471795717759
C        -3.72203088697244    0.38177295036242    0.80974154184110
C        -3.40521290090534    1.41668901438312    1.68112165267620
C        -4.19634762636502    2.54944495392202    1.72656045578300
C        -5.31193949664919    2.67099844141113    0.90793185426156
C        -6.13222350198404    3.92823912695975    0.91183757289776
C        -5.59788592198370    4.90804463433698   -0.13509567776720
C        -5.62597304380211    1.62615451283343    0.04824870366422
C        -4.84434696230689    0.48778044716638    0.00006773948340
O        -3.19603645989366   -1.90771518330042    1.27421845853616
C        -1.18037283481574    0.45996578385960   -0.54580966871717
C        -1.56429863772653    0.55649526098685   -2.03582882577913
O        -0.55401409513169    0.24019955348087   -2.84118360390668
O        -2.65656146817805    0.86174565688675   -2.42299310750185
N         0.23894921919593    0.29080789334499   -0.36525874918866
C         1.05450636671905    1.37002390015985   -0.23262668568363
C         2.50081745085284    1.04357938226308   -0.07530383342771
C         3.16691952428314    1.39357606491963    1.09186100972144
C         4.49840158855561    1.06390983445854    1.25375136287845
C         5.19609390279719    0.40622597271073    0.24864357983831
C         6.65113934202091    0.07695708018498    0.41678054349754
C         7.52062351349035    1.23581351936873   -0.07548879037933
C         4.53547538314768    0.10755843703520   -0.93652492246146
C         3.19870168553727    0.41692857361568   -1.09994121336411
O         0.61266011331420    2.50173539085877   -0.24978117524682
H         2.94336910328181   -2.44598818045166    0.05803709559424
H         4.30095724069779   -2.75586503831591    2.08409394135893
H         3.54927693603400   -1.80534496961270    4.23341037642304
H         1.41684087791945   -0.57087620487268    4.35055828691758
H         0.06091581948807   -0.25901509548355    2.32153004291626
H         1.13212406534737   -1.47583383920927   -1.06518988319967
H        -0.85834515133266   -2.43107113821754    0.81845795195628
H         0.70014002088788   -3.88304431416964   -0.91499204803565
H         0.35166059392776   -5.36521815930183   -2.84718205993591
H        -1.61695859059962   -5.05360887185894   -4.30447023556770
H        -3.23993319452256   -3.26299323127363   -3.79993654047291
H        -2.89529420729338   -1.78947231276664   -1.87530211383823
H        -2.54507878177393    1.33243548420580    2.33093171232893
H        -3.94291905975434    3.35020659577228    2.40643537845546
H        -7.17385337432004    3.69177860355594    0.68551094430734
H        -6.09345883575076    4.39585660155497    1.89762603774081
H        -6.19368764914615    5.81778383048935   -0.14495944401884
H        -5.63127889214508    4.45784373827939   -1.12448454009438
H        -4.56535342142297    5.16981606599991    0.08449649772347
H        -6.49368278713128    1.70431718429054   -0.59044154084053
H        -5.09956398153342   -0.32056012986598   -0.66811458573621
H        -1.53440264527530    1.37788206457816   -0.05786145910456
H        -0.82365203452167    0.30978292656524   -3.77174330962428
H         2.63000844609036    1.90595895532869    1.87566296073288
H         5.00368658542542    1.31737590690186    2.17443927741420
H         6.86701032404547   -0.11332785582324    1.46993336100091
H         6.89590756884171   -0.82277841891912   -0.15132102200701
H         7.32766359879676    1.43260498359123   -1.12762509155424
H         8.57514813669376    1.00001327007461    0.04705720956912
H         7.29797841690433    2.13962390364690    0.48669453072470
H         5.07319938345680   -0.38175391122422   -1.73647667458207
H         2.69398650856082    0.18120634263487   -2.02602915749941
