78
 energy: -124.148248622657 gnorm: 0.000991855549 xtb: 6.3.3 (4ae9cef)
C        -1.72082956591084   -5.18774213205743    0.65784955548231
C        -0.52030240484938   -5.54354968856475    1.20148912408006
C         0.38180334648538   -4.54977910745766    1.60614616016270
C         0.07189826244351   -3.22651466364536    1.46411224407941
C        -1.15657946193370   -2.81832777627735    0.89864580270621
C        -2.06742730173799   -3.83080474222384    0.48596944064141
C        -3.29624349486991   -3.47104664043783   -0.10390293459440
C        -3.61167924224478   -2.15832918513172   -0.30676912856804
C        -2.71325749623305   -1.15736012905768    0.07955766992950
C        -1.52193982508411   -1.46175637629330    0.69108399809272
C        -0.59065974532472   -0.32998452121021    1.04506620464787
C         0.16339621851353    0.17889028861296   -0.21066146959230
C         1.59773445363492   -0.29116056335317   -0.17831835757486
C         2.53370095816234    0.44662900728547    0.50122079234925
C         3.86224217134520    0.01964981885204    0.60659366608664
C         4.24482549449456   -1.16238587335532    0.04265944238988
C         3.31216188700370   -1.96539824234328   -0.64458280324305
C         1.96226497281084   -1.53354365465176   -0.76542360082662
C         1.06017788261924   -2.37503903197920   -1.45369047441486
C         1.46490207013201   -3.56998806338328   -1.98003235241601
C         2.79630061916947   -3.99043441253838   -1.85890206970729
C         3.69874334572711   -3.19977517600134   -1.20747447836604
N         0.01257170578700    1.62176796360244   -0.15615458856412
C         0.30027102924427    2.52273882017463   -1.11242568281143
C         0.83126334443825    2.02840243461580   -2.43285925778791
C         2.32479085083505    1.80756186623293   -2.36950313161152
C         3.14862922024215    2.77580571104419   -1.80977906386992
C         4.51646760562829    2.58184225066341   -1.75350787789728
C         5.07511129136222    1.42236318186764   -2.26341599178734
C         4.26048256858746    0.46090794638766   -2.83480110202307
C         2.89131717868415    0.65213332596692   -2.88770725911282
O         0.14452166991537    3.72342119164211   -0.88743349074450
C        -0.70949760346520    2.04587115216989    1.03486900723233
C         0.25646813996971    2.71249594272526    2.06250083505378
O         0.75794975035781    3.85951633578333    1.65073017464368
O         0.49764325568569    2.21700005819675    3.12556545750905
N        -1.30758507401740    0.84208420115696    1.52943491013414
C        -2.12538384813059    0.72576645693501    2.61596502031481
C        -2.78574761607329    2.01452314799992    3.08154777205512
C        -3.61759051520878    2.62060641308212    1.98538271727366
C        -4.55971644348383    1.83887092783535    1.32479625420567
C        -5.31283134456019    2.36982784252074    0.29340030421133
C        -5.13845336779979    3.69039474218834   -0.08809050402098
C        -4.21309908203093    4.47965559870435    0.57243861493042
C        -3.45540233134010    3.94705956890468    1.60202689612914
O        -2.35868377164099   -0.35287996074577    3.11062245201500
H        -2.42850175483123   -5.94222591479524    0.34446724042479
H        -0.25987150950355   -6.58437293923502    1.32567753695324
H         1.33037750133534   -4.83667900567562    2.03560306172378
H         0.79134391618506   -2.49095684762045    1.78723780012304
H        -3.97915598776336   -4.25479923507005   -0.39874786276985
H        -4.54869027825412   -1.88005103002285   -0.76681268783762
H        -2.97360814428041   -0.12244947728857   -0.09575281536617
H         0.12278084859899   -0.64028311261879    1.81591141282178
H        -0.34218148066670   -0.18453853783105   -1.11195619206067
H         2.25383885596362    1.37817703975579    0.96975277625079
H         4.57045636902244    0.63297415374595    1.14150058852175
H         5.26573779548460   -1.50607452554200    0.12105719828021
H         0.02480847210307   -2.09189412628396   -1.56183423512427
H         0.75255874315321   -4.19901487889612   -2.49274780315123
H         3.09845990927504   -4.93671000341127   -2.28243468917346
H         4.72922015999327   -3.50922533801433   -1.10663759247159
H         0.62044801882911    2.81329721590471   -3.16511090263191
H         0.32961715606112    1.11100359987852   -2.74131981088921
H         2.71492352685435    3.68476175514299   -1.41928251249978
H         5.14705345291320    3.33899121589944   -1.31175247547108
H         6.14281405862618    1.27022528352054   -2.21755952490536
H         4.68811137496922   -0.44423054385577   -3.23965429156095
H         2.26237801555245   -0.10462546494842   -3.33496538268251
H        -1.46894746045370    2.79412149329333    0.75057739758267
H         0.49458846878584    4.06443342764907    0.70659130837852
H        -3.42148932348661    1.74653450147212    3.92871975074977
H        -2.02645634631603    2.71441272451081    3.43217705980343
H        -4.69687892160994    0.81108285841611    1.62898321487250
H        -6.03992640760128    1.75263208775821   -0.21383093482943
H        -5.72537572553384    4.10426094927631   -0.89440247440721
H        -4.07661651053857    5.51162585047897    0.28497396391357
H        -2.73654555014647    4.56961056993472    2.11733398058773
