60
 energy: -106.715120096390 gnorm: 0.000485330963 xtb: 6.3.3 (4ae9cef)
C        -2.79935050478740   -2.30076421724554   -0.22129560988859
C        -3.76097334135107   -3.08299290377055   -0.83846457137350
C        -3.40503889039677   -4.27007133283666   -1.45328049927411
C        -2.08292069128162   -4.68202432706158   -1.43206438308129
C        -1.12113534566151   -3.89999445452791   -0.81935502055595
C        -1.46751793977385   -2.69180072937663   -0.22493090779762
C        -0.40001760163618   -1.85567436208128    0.44124743505150
C         0.84332354077335   -1.60630811505972   -0.45441509331099
C         2.13491258785508   -1.82863920586455    0.29002507586132
C         2.48714899101340   -0.98565037673904    1.33704006393832
C         3.66159229780669   -1.19300851030883    2.03593128947883
C         4.49512874659572   -2.24493964651837    1.69556434539980
C         4.15056106355985   -3.08592997594192    0.65201252510234
C         2.97537927417913   -2.87836008502578   -0.04816874027410
N         0.70433877029819   -0.20541228729304   -0.83679774956303
C         1.58342305587807    0.41597959630060   -1.66178013389099
C         1.25141089012376    1.86467155256272   -1.88147370066042
C         1.47256599844233    2.79309959573278   -0.86947400668354
C         1.13996934955113    4.12150124929310   -1.06740506588682
C         0.58426592587951    4.53377940455335   -2.26653081961399
C         0.38174076549579    3.60426033401452   -3.27449077624610
Cl       -0.30510590747630    4.10749275869502   -4.77488448240763
C         0.71527638288333    2.27084533586216   -3.09369272571522
O         2.53710244054571   -0.14493727089440   -2.14984951592970
C        -0.52634346280243    0.34802124329916   -0.33551087404308
C        -1.65319543399648    0.30692984098086   -1.39468524989152
O        -1.30235949856432   -0.36070628557303   -2.48325975610543
O        -2.72073352824187    0.83052665256791   -1.24031634003420
N        -0.85655336437727   -0.51196059069103    0.76934454101646
C        -1.00471027473706   -0.13874836981119    2.07830584406753
C        -1.14067992022838    1.32436484190660    2.33982906515185
C        -2.00819722257530    2.14418479713799    1.62527412118820
C        -2.05213905038647    3.49766457321778    1.91985566380338
Cl       -3.10247760008742    4.52090922731272    1.00827828743616
C        -1.26010524613601    4.04223691196776    2.91923388789756
C        -0.42149522988665    3.21276751265712    3.64412148088846
C        -0.36205113450578    1.86019639179488    3.36213016754982
O        -0.99792624237018   -0.96062328993352    2.96876762092642
H        -3.09362180853294   -1.38811769643796    0.27422244988846
H        -4.79185369946295   -2.76192277838565   -0.83229594564497
H        -4.15541926200420   -4.87869058157969   -1.93503638547358
H        -1.80009880903601   -5.61785883331510   -1.89055908729663
H        -0.09560370862024   -4.23742699302978   -0.78915541902424
H        -0.11133820706351   -2.34143792163406    1.38222042211379
H         0.82019094386569   -2.22761376716551   -1.35565020555096
H         1.84050705054056   -0.16167055579708    1.60631494650410
H         3.92759085466951   -0.53179170146132    2.84744302597269
H         5.41325717911713   -2.40531785819534    2.24066093864027
H         4.80079323435729   -3.90350797432614    0.37872906817545
H         2.71475041694678   -3.52886307429855   -0.86998579104679
H         1.91265977432750    2.47467324238489    0.06454789205606
H         1.30925743821744    4.84194710925602   -0.28189229990712
H         0.31408922317363    5.56611998435644   -2.42205776088119
H         0.56249398909386    1.55402052149401   -3.88529838580442
H        -0.41767843208979    1.39073847918500   -0.01453807497995
H        -2.02898288298265   -0.38656001425535   -3.12788701197708
H        -2.64978186982981    1.74226719411656    0.85643603831987
H        -1.30982158623748    5.09879409243334    3.12948407406890
H         0.18747844735940    3.62645984718952    4.43324789642725
H         0.28401806455532    1.20487479621694    3.92621422284415
