64
 energy: -119.650928355923 gnorm: 0.000495281906 xtb: 6.3.3 (4ae9cef)
C        -2.20525936085988   -1.50130572950966   -0.68383972055560
O        -2.18853951026922   -1.80598241401384    0.63950653133714
C        -3.03660044285343   -2.82758279970466    1.11194660836489
C        -2.99729594080170   -2.13714942356086   -1.63244290002507
C        -2.94559684793557   -1.74579402497065   -2.96000132493997
C        -2.10514623400891   -0.72519953345721   -3.36147322860895
C        -1.31489955254462   -0.08549383902302   -2.42076726486790
C        -1.36332662079414   -0.45273724202025   -1.08826127308536
C        -0.51049290583621    0.23165179334829   -0.05109097245750
C         0.89685632554712   -0.40322736490195   -0.00928649806634
C         1.06070879830336   -1.30146796538760    1.18769909556944
C         1.32973044097885   -0.79467909878021    2.44570654580910
C         1.45425396221654   -1.63723076700680    3.53721677401363
C         1.29778113580144   -2.99860908427506    3.36535549744091
C         1.01016050939608   -3.52244734239267    2.11607839743787
C         0.88457150433909   -2.68206365283886    1.01731379129945
O         0.58087730238848   -3.10040808924616   -0.24388644802768
C         0.43846652726366   -4.47889451204239   -0.48152146533320
N         1.81669014905687    0.72771521756124   -0.03818702349438
C         3.15218075222186    0.49859435650644   -0.02408879809233
C         4.05529583727053    1.66276782196830   -0.17478908584018
C         5.32524572068073    1.79263261061825    0.33783900714850
C         5.81288047454921    3.02762200141330   -0.11897412398760
C         4.80940052242997    3.56173282387221   -0.89791927345056
C         4.78580305130725    4.77360852062287   -1.60541274107536
N         4.80263316166739    5.77209540540713   -2.16871060770477
O         3.74707798600775    2.73022826520341   -0.92973456621262
O         3.61302778700267   -0.61827575096233    0.11218306860557
C         1.12621985069343    1.98768119606248   -0.11612396654089
C         1.23041574455364    2.77020676540062    1.21608326884639
O         2.25501719520710    3.61229506245386    1.22449135548957
O         0.48645631434170    2.60520534116639    2.13985087377370
N        -0.25525303889188    1.63194626784140   -0.33430113534651
C        -1.12715168103501    2.65854696998630   -0.48884173294828
C        -2.56464960852391    2.34591720705223   -0.56416091806339
C        -3.56005249171357    3.11042601197417   -1.13296031060147
C        -4.75299225055513    2.38982147684445   -0.97133977605838
C        -4.40447773982839    1.23655278281179   -0.29926016920026
C        -5.18272040167789    0.13786340045690    0.09188172941750
N        -5.81279292242434   -0.77228928628908    0.39334315188315
O        -3.08087722586191    1.22239723598836   -0.04948615741497
O        -0.72751530619597    3.80494360581601   -0.61076317586605
H        -4.09058328893685   -2.57512829740628    0.96029485753641
H        -2.83050799779669   -2.90259321018992    2.17851276083341
H        -2.81414307559468   -3.78570507896554    0.63215325264572
H        -3.66712989265938   -2.93093899488455   -1.34436508506593
H        -3.57202212846241   -2.24780676927947   -3.68189321055122
H        -2.06403360168615   -0.42492206102348   -4.39686525106226
H        -0.66076326637692    0.71991529323859   -2.72238811088914
H        -0.98688329511021    0.12803597771930    0.93175665193542
H         1.07125735621730   -1.00615357174490   -0.90904654800289
H         1.44002722544965    0.27128810505213    2.57589853620645
H         1.67042227154068   -1.23036010505107    4.51287466366073
H         1.39506750850943   -3.66700800131280    4.20802337695399
H         0.88767944337897   -4.58886666113644    2.01113902195381
H         1.36291868942363   -5.02270483708694   -0.26393419101469
H        -0.38190563094729   -4.90682480965217    0.10430760436773
H         0.20693432962684   -4.56984977793831   -1.54202970869417
H         5.82353013265264    1.08153807774240    0.96335335205528
H         6.76645466682868    3.47164598349605    0.08177947036568
H         1.49078488773184    2.63433032730921   -0.92550314730600
H         2.27874008935058    4.12423981576496    2.05062143322074
H        -3.42662569361264    4.06043275930527   -1.60721197736751
H        -5.73533070017433    2.66582261603176   -1.29634679035954
