60
 energy: -135.928553549004 gnorm: 0.000696933840 xtb: 6.3.3 (4ae9cef)
C         2.64056950905999   -1.59111213381565    0.30594341131487
C         2.51247999505121   -2.23204716864457   -1.05145012046419
F         2.62273359430743   -1.36018429830938   -2.07094212953060
F         3.44319829012547   -3.16683975713637   -1.27030859718347
F         1.32444666253937   -2.84415209236570   -1.22066017640340
C         3.66261851547246   -2.02973546773981    1.14231677414625
C         3.80604717577157   -1.50197642758212    2.41121557548972
C         2.91164594501584   -0.54547727465741    2.86043144600995
C         1.89728122139172   -0.10877941227518    2.03090163218251
C         1.75414697817622   -0.60002583807022    0.73544827571506
C         0.62914392489877   -0.06294439238329   -0.11952951079274
C        -0.73737560027420   -0.55039729825214    0.42249431032774
C        -1.26151480198289   -1.80240450176436   -0.24219949416773
C        -1.82202130261399   -1.88814783586662   -1.51882301953174
C        -2.05911794746652   -0.70253712540991   -2.42054522361383
F        -3.20995682175932   -0.07840104841782   -2.14999458953483
F        -1.07741625413625    0.21662957132640   -2.38021236015157
F        -2.13225872311909   -1.06807124174552   -3.71388247470468
C        -2.26408277734915   -3.11448988786145   -2.00583313401118
C        -2.13067860369947   -4.26711362486309   -1.25847041898898
C        -1.55605067777812   -4.19785402040486   -0.00316321812455
C        -1.13434285147799   -2.97982947867428    0.49021167263568
N        -1.59789654117272    0.61999541522145    0.34785849954501
C        -2.92060042214093    0.48207835429673    0.66087284447096
C        -3.73033973376073    1.69606883940122    0.78896934173257
C        -5.09331063137707    1.79753867891109    0.68574178032488
C        -5.41637829202704    3.15517967627825    0.89007647160121
C        -4.22400295078884    3.77988463086053    1.11506909493743
Cl       -3.85822335767654    5.39993584917799    1.44722653344654
O        -3.19694120735968    2.91738172961070    1.06551498878383
O        -3.40669348494516   -0.62054111501508    0.82962135212999
C        -0.84092284182405    1.83576301917228    0.23754330558172
C        -1.41226042546616    2.78774327593818   -0.87838578749904
O        -0.83532614140993    3.96775847940181   -0.92950777425874
O        -2.32616764069263    2.46840185789038   -1.57405526861425
N         0.52172847263405    1.38932397240119   -0.02803888147705
C         1.54960819200014    2.25407813635492    0.06306683144107
C         2.89474566386365    1.70751585797189   -0.24906536272017
C         3.42734333235820    1.30635277155693   -1.44041721372942
C         4.77802241551565    0.97197095386227   -1.18032799626142
C         4.95924784065805    1.20872657478333    0.14943353560347
Cl        6.30421819999944    0.97801974207649    1.15420465887110
O         3.83661491083673    1.67004569644901    0.72322648317866
O         1.38242269313772    3.43347313487298    0.34715262320597
H         4.34804162144557   -2.78555118783070    0.79273949444097
H         4.61033774986725   -1.83972126857209    3.04479643307634
H         3.00676490992416   -0.13383557414592    3.85299270386010
H         1.21403349612325    0.64868645729476    2.38513962668622
H         0.75471218917068   -0.34843548194337   -1.16564869835455
H        -0.61579760332553   -0.80251765264772    1.48868834079808
H        -2.71412143560497   -3.15991541466781   -2.98529302901487
H        -2.47751587890235   -5.20826821996308   -1.65473727326935
H        -1.44331805574980   -5.08773124514065    0.59652698363400
H        -0.69879933344970   -2.93519815380001    1.47754181737557
H        -5.76212825987778    0.99036258040564    0.47332767672604
H        -6.38433550412137    3.60930531181570    0.87087193021608
H        -0.84715980375006    2.41534758646353    1.18087361183192
H        -0.03384771209567    4.04262061156770   -0.34934433841764
H         2.92617079178413    1.25256055910431   -2.38413601374230
H         5.50258232804891    0.61148731549420   -1.87857995676320
