76
 energy: -138.720342788979 gnorm: 0.000242909121 xtb: 6.3.3 (4ae9cef)
C        -4.70525986730305   -3.77737650236178    0.64333412073991
C        -3.93854872125604   -4.58469483931428    1.43297262488732
C        -2.64581572370490   -4.17911192461565    1.79272625838092
C        -2.14362797035902   -2.98319251164925    1.36185595243523
C        -2.90135048833285   -2.12559614142339    0.53350436792720
C        -4.21291322961382   -2.54240958692931    0.17077008697205
C        -5.00046512059440   -1.72952312556708   -0.66920638268977
C        -4.50414127287182   -0.55880171414195   -1.16466149283250
C        -3.20707100951875   -0.15436082817159   -0.83022475464438
C        -2.42178947299826   -0.89038344481342    0.02087604449641
C        -1.01243585661972   -0.43864694473585    0.30222370074927
C        -0.08584516170501   -0.88863813916899   -0.84571918276669
C         0.35080693706856   -2.32362366943630   -0.73835549231228
C        -0.23235221404531   -3.21550393875451   -1.60452112746255
C         0.03846293769740   -4.58701333747577   -1.54122651698818
C         0.90546501456507   -5.06851391315766   -0.60426346118381
C         1.53017738097901   -4.19316364023580    0.30636036422644
C         1.25024911007803   -2.79901510291752    0.25360976670675
C         1.87980180023836   -1.96457513684749    1.20227584602558
C         2.74063733357736   -2.47300720428057    2.13559048898207
C         3.02176187499363   -3.84538952279094    2.17738384630453
C         2.42452847610689   -4.68441392190516    1.28077389528624
N         0.96076288569267    0.12645460025604   -0.81994740330887
C         2.06323855065105    0.02435395812654   -1.60137259068682
C         3.02607934419845    1.17999548949900   -1.47957703846806
C         3.05332086163878    2.24659605570675   -2.37657911073189
N         2.04989896228684    2.35060323705964   -3.40022574711849
O         1.02513717637727    1.71245916832712   -3.24362275837548
O         2.26727053817826    3.08090450542113   -4.33881805435742
C         4.02841405807867    3.23423923918512   -2.29735617741276
C         4.99049234062267    3.16045772275766   -1.31019083832722
C         4.98743261258205    2.09409003061281   -0.42278234217130
C         4.02168443464989    1.10555113124191   -0.51331594816667
O         2.34721997661747   -0.95730733988196   -2.24620360534339
C         0.41571324781513    1.37798175981689   -0.34886341116202
C         1.32874750241704    2.08212725050388    0.67461374452424
O         1.79067235470479    1.25435231611691    1.59048932392921
O         1.56335478662949    3.26121521524782    0.63504167562081
N        -0.83911861758644    1.00952590239352    0.27199663393745
C        -1.65622575785825    1.85628022407176    0.94417273798580
C        -1.46003128623151    3.31866769768280    0.63491517398479
C        -1.85432858293673    3.81319658469645   -0.60136998172633
C        -1.84023068828330    5.17574370072269   -0.85127660500856
C        -1.45200447977719    6.06982439327327    0.13511166056237
C        -1.06195521153228    5.59838976081360    1.37331135144879
C        -1.06417955145222    4.23042864541104    1.61174120097305
N        -0.57199446529191    3.74893600286971    2.86961165646517
O        -0.56237843777057    4.50686013919608    3.81062304347991
O        -0.14719788562381    2.60850801716495    2.89624648766967
O        -2.57219166598134    1.49130351096270    1.64483708038473
H        -5.70496012771378   -4.07386475922120    0.35919779293619
H        -4.31936049684329   -5.53195370238257    1.78507398644895
H        -2.04234808563869   -4.82038256360659    2.41808069739308
H        -1.14503401594994   -2.70885608561507    1.66099359745847
H        -5.99831810852323   -2.05732668258318   -0.92228483759211
H        -5.09937028786377    0.05996662047598   -1.81949300295277
H        -2.82543629083247    0.76380083213174   -1.25234115191733
H        -0.66428652673204   -0.81653129087933    1.26790506509866
H        -0.63531010789005   -0.77613306566172   -1.79285088438686
H        -0.92100787999526   -2.85695168977151   -2.35563581625103
H        -0.44351247497863   -5.25314855793641   -2.24066411535229
H         1.12722813504739   -6.12426099668050   -0.54466123140285
H         1.68081462161676   -0.90773858396241    1.19796854197069
H         3.20780205905411   -1.81341558958423    2.85292310562834
H         3.70530448134821   -4.22943813731117    2.92031909305067
H         2.62702250876653   -5.74578589201864    1.30281383984967
H         4.00832709291893    4.04437209305320   -3.01026917630837
H         5.74448426004198    3.92795990979062   -1.23494443417420
H         5.74707044659946    2.02869682360796    0.34122369112452
H         4.03197424057570    0.26306561565646    0.16188452442149
H         0.24557125787447    2.08209231114020   -1.18248766323548
H         2.21489303922580    1.72681793362808    2.32578323114995
H        -2.18167490558355    3.12914024246785   -1.36983067829847
H        -2.13910929985968    5.54098671195997   -1.82193380680547
H        -1.44811777100450    7.12996030931222   -0.06371893496411
H        -0.74052352285963    6.26414436542643    2.15965645528000
