60
 energy: -102.485342670615 gnorm: 0.000490006036 xtb: 6.3.3 (4ae9cef)
C        -0.74527104509360   -1.43143500015252   -2.96992213709246
C        -1.37501723012870   -1.42878414689804   -4.20440423528789
C        -2.75254849091505   -1.52133459075966   -4.28850600559763
C        -3.50591413171437   -1.62034493235621   -3.12953533504893
C        -2.87993610943305   -1.62734100787236   -1.89780453250262
C        -1.49376265378526   -1.53367378685438   -1.80557095565159
C        -0.90149444097900   -1.48544443691997   -0.41685647987350
C         0.63379512845583   -1.51137974918733   -0.31688245871627
C         1.05253535366906   -2.08530569555737    1.01698581890186
C         1.15288331627152   -3.46401114265711    1.15564343279655
C         1.48601884649978   -4.02363938688936    2.37473524303543
C         1.72619652432314   -3.21022123171929    3.46948489952156
C         1.63086784331827   -1.83678150574860    3.33659998171654
C         1.29010152054468   -1.27581110018948    2.11789295888396
N         0.98244144532908   -0.10127960839266   -0.43687901563231
C         2.22443214079949    0.28726654916440   -0.83725827924534
C         2.48001907136297    1.74398738371465   -0.80984852847248
C         2.33467769716062    2.61653393085680    0.23125257332831
O         2.75868643326009    3.84066900450175   -0.11101699687655
C         3.18262965287671    3.76645771470530   -1.38931271577159
C         3.05309921971905    2.50311503375472   -1.87830141338946
C         3.38039349770924    1.98393400678282   -3.22901027833348
O         3.06756301740840   -0.52602327864156   -1.15266545826626
C        -0.20010572179717    0.72342111907071   -0.30027295577379
C        -0.60540572115493    1.31940901675625   -1.66535706346366
O        -1.87988203162917    1.70219082903311   -1.66815566447162
O         0.13435902208211    1.45885158302700   -2.59588400746585
N        -1.20129568351358   -0.18432179844645    0.18119757508107
C        -1.90070803782009   -0.10570660971554    1.35288040698212
C        -1.91093003011107    1.21063549342571    2.01799515232862
C        -2.12249003596402    2.45159208147810    1.48130977582366
O        -2.12109521251397    3.38702086719801    2.43657740002957
C        -1.90229390437993    2.75756780717618    3.60911400287435
C        -1.77579219785605    1.41389606385235    3.43004790386570
C        -1.52776883847500    0.36057127839452    4.44724400196862
O        -2.49810418934640   -1.06661413946122    1.79217396570945
H         0.32923770040154   -1.34086891429734   -2.93616666848623
H        -0.78096731619882   -1.34806443355860   -5.10226809390487
H        -3.23847229606933   -1.51685991454136   -5.25296094677338
H        -4.58172482046836   -1.69421884842769   -3.18663426484217
H        -3.46129469303314   -1.70120004548045   -0.99061593328405
H        -1.36231697125850   -2.25384672507309    0.21175016745470
H         1.10763494831921   -2.08425354230935   -1.11780942147569
H         0.96940506251148   -4.09820974291740    0.30031348545858
H         1.56208349844324   -5.09645675309906    2.47055936645372
H         1.98867542540887   -3.64547480314119    4.42207740100060
H         1.82458688513584   -1.19775778828584    4.18619598534129
H         1.22459029080340   -0.20119561830678    2.02304896851922
H         1.99761355583511    2.48402127180674    1.24154951513836
H         3.55743173636555    4.66691441559328   -1.83327587463824
H         3.92930459115652    2.72552989395461   -3.80270797186402
H         3.97302963704816    1.07623473170840   -3.13825529761175
H         2.45845381926899    1.73278666442016   -3.75139418250611
H        -0.05781352373615    1.56421764167169    0.39050553411051
H        -2.13270324794691    2.05093487160222   -2.53926218785694
H        -2.32441957187757    2.76227279915935    0.47551562851517
H        -1.86639216019850    3.36339568608928    4.49232213393240
H        -1.70626591017756    0.74773222037187    5.44663115372620
H        -2.18081914893846   -0.48830821654894    4.25901783641055
H        -0.49974151494790    0.00501153515081    4.38417609128179
