66
 energy: -132.524424508067 gnorm: 0.000461304612 xtb: 6.3.3 (4ae9cef)
C        -3.49777745434052    1.58620761891087   -0.59074866810443
C        -4.13931801072862    1.21344257773926    0.71575385922730
F        -5.41075313945383    1.61242572642567    0.81280488400076
F        -3.50913028950391    1.72493999147877    1.79211092806976
F        -4.15764867635451   -0.12517872951801    0.91943517408182
C        -4.25459571176076    2.26650918849503   -1.53605524932615
C        -3.70235244944423    2.60547268030751   -2.75612973089444
C        -2.39263955016280    2.25888373754880   -3.03869374114603
C        -1.64101716871800    1.57857883762347   -2.10125820943559
C        -2.17452836644723    1.24090585133831   -0.86289751296940
C        -1.31570814906570    0.47438308813339    0.11053199585508
C        -0.96458016658447   -0.93201707878492   -0.42650168876113
C        -1.72483366585664   -2.02086359313120    0.29432912996781
C        -2.78627071443661   -2.71288757690333   -0.29156650718262
C        -3.23904474673450   -2.41212688732414   -1.69369983920486
F        -2.29696877815273   -2.61368607616373   -2.62984118932119
F        -4.29236152510340   -3.14645713956441   -2.07200714160079
F        -3.62577811532064   -1.12288812739424   -1.84673632625754
C        -3.46216494843505   -3.69635895748407    0.41984964403742
C        -3.09272738546823   -4.00006817087087    1.71620317570026
C        -2.04558429798444   -3.31713741963316    2.30770444758778
C        -1.37511660236048   -2.33675722065705    1.60170280466183
N         0.47796135607913   -1.03889785242146   -0.23662534699541
C         1.08914971845210   -2.22730236880128   -0.53230655903531
C         2.54749740383600   -2.33892082295214   -0.42862293068858
C         3.17672746585224   -3.52587837430681   -0.17735898403713
C         4.58829936384738   -3.44148292612360   -0.19327700300898
C         5.48749130109478   -4.60068894888999    0.07529616735957
C         5.00905319497130   -2.18190485422277   -0.48929990434064
S         3.71012678196758   -1.08610809079138   -0.72711987426298
O         0.41699178255982   -3.17772474985286   -0.88572360748796
C         1.02696288796871    0.13094955092529    0.40548310078514
C         1.39581161621747   -0.21036972349735    1.88786701606949
O         0.75311465226568    0.48761661506269    2.81843374659212
O         2.18336323332053   -1.06725008791917    2.15520344004740
N        -0.01272503600816    1.11487779925087    0.31052135251377
C         0.08751462780394    2.48111254861766    0.38802865857318
C         1.40324690148296    3.11207438169399    0.54147565108354
C         1.57862389902642    4.45333682141460    0.31197287722054
C         2.88807031290499    4.91269389573200    0.56601430601259
C         3.32034033353607    6.32741103379216    0.37803253761973
C         3.69173867491353    3.90461005483994    1.00989728933279
S         2.88668997719763    2.39597374511764    1.10720047878784
O        -0.91464237446093    3.17117241918241    0.33819424550613
H        -5.27668208781474    2.52821218829564   -1.31180657967844
H        -4.29557081339212    3.13623432768787   -3.48408926964748
H        -1.95580177864997    2.51576886029144   -3.99166118989876
H        -0.61766964684026    1.31250195526546   -2.32361676130492
H        -1.81405658569022    0.37574770136889    1.08080488511904
H        -1.15586580400267   -0.98740483800000   -1.50245049230124
H        -4.27842205648599   -4.22515617999941   -0.04664867955651
H        -3.62119116017269   -4.76807448169603    2.25878577452703
H        -1.74622338330692   -3.54523487956521    3.31912216703612
H        -0.55018540903610   -1.82396225423873    2.07244408042834
H         2.62913300290711   -4.42864852718217    0.02404247364289
H         6.53055744839565   -4.30315751275600    0.00764578603201
H         5.29907833210421   -5.39607654660858   -0.64440723623699
H         5.29712972716617   -4.99666600631589    1.07163519799267
H         6.01469245777222   -1.82221901068380   -0.58481212543578
H         1.94135936656790    0.46095338331152   -0.10423812719792
H         0.14101173032639    1.14763022728088    2.45193085149547
H         0.77457914681590    5.07851202472417   -0.03221156345762
H         3.18685141999996    6.62520383694091   -0.66087005369261
H         2.71508181415792    6.98831381625919    0.99637089271716
H         4.36549492791820    6.45002034158590    0.64851798429068
H         4.72619218884903    3.95688018759164    1.28793608848978
