66
 energy: -122.481887662429 gnorm: 0.000663680248 xtb: 6.3.3 (4ae9cef)
C        -1.57808458202585    4.75047380049073    2.60031537342649
C        -1.09584297554892    5.58586934559315    1.63368400869334
C        -0.71263854122696    5.06520920339424    0.38991741113183
C        -0.82072715406201    3.72682703560163    0.13119618299239
C        -1.32302012389691    2.83481995457623    1.10435742504382
C        -1.70168779182453    3.36487216785590    2.36736421639005
C        -2.18512842432742    2.50038968618499    3.37129128922763
C        -2.30163718242721    1.16256822959901    3.13492361630411
C        -1.93514047996782    0.63522408888017    1.88917930279608
C        -1.45784724746875    1.43675637778328    0.88591778514840
C        -0.98135304571179    0.84642391329215   -0.42388363877599
C         0.55278074911860    0.71662470206172   -0.37214527344414
C         1.26375476279615    0.59546497335204   -1.69924193023463
C         0.57489344405927    0.48482747005017   -2.88135958281037
C         1.24403106799732    0.32687158000408   -4.10431131500776
C         2.60606720666374    0.27040606240969   -4.13979903313539
C         3.35726468003964    0.38073683890605   -2.95145015809281
C         2.68778313585641    0.55086992707722   -1.70905164011318
C         3.47324667034658    0.66190232425139   -0.54122322117677
C         4.83829816019866    0.60072907819245   -0.60370846402195
C         5.49464545904654    0.42727784544442   -1.82989638081543
C         4.76595937315752    0.32207192713204   -2.97985647050186
N         0.66460918481589   -0.54502363977462    0.36842674869602
C         0.99631955243897   -0.49884663380723    1.69340926416182
C         0.76122774457723   -1.69862788153734    2.50724354556631
C         0.62428119850923   -1.75052286356973    3.87766331870731
Br        0.61565373266298   -0.30571535126148    5.05162149115075
C         0.44171214684473   -3.10973800811094    4.22298784947951
C         0.49343777356414   -3.78834341331850    3.04503168626320
O         0.67651607200921   -2.95566839554540    2.01229936768143
O         1.50509383963415    0.48831233986105    2.18836970497973
C        -0.29146622267345   -1.42774585827903   -0.24140044693928
C         0.37579520527743   -2.12410059283783   -1.44567702373800
O        -0.46450651160927   -2.31181994536257   -2.46208737905279
O         1.50640231106662   -2.51433638705295   -1.43329319741991
N        -1.39192703326876   -0.54619041048948   -0.59475188119587
C        -2.58212942952759   -0.84049862804859   -1.16427838200334
C        -2.95393471557744   -2.28486417345036   -1.25773320926229
C        -3.13493846800536   -3.28409715968620   -0.33168420193500
Br       -2.82104837563696   -3.22006916917048    1.51820865383645
C        -3.66466889649703   -4.40255530990259   -1.01946789911090
C        -3.77392965165344   -3.99861581119816   -2.31353649766189
O        -3.36218659389039   -2.73488957038797   -2.45678011305703
O        -3.33307658288332    0.01709946770000   -1.57731748685595
H        -1.87316217328649    5.13734088882889    3.56508750462817
H        -1.00452137315705    6.64586450500387    1.81882956468762
H        -0.32746822323347    5.73099729071739   -0.36845521866249
H        -0.51307934339085    3.35530571958093   -0.83416956650725
H        -2.45410341142124    2.91620932889587    4.33097904742224
H        -2.66608170266728    0.49479595210062    3.90088653591430
H        -2.04534067951065   -0.42725785528201    1.73396813381230
H        -1.36417955999160    1.43503559755905   -1.25878273691847
H         0.99164153874007    1.51229842083217    0.23436297222946
H        -0.50383412156790    0.50788709018720   -2.90498711091314
H         0.66317132406013    0.24577147458495   -5.01142823422123
H         3.12975730737525    0.13996433910344   -5.07586399817512
H         3.00500219389137    0.79714620456977    0.41949490174678
H         5.41994519299298    0.68718071480457    0.30194792402790
H         6.57334662757463    0.37970150259245   -1.85750964208689
H         5.25637032513752    0.19106191845351   -3.93410738709984
H         0.29836332546208   -3.50331347023171    5.20697421162492
H         0.41339065442171   -4.83338605781310    2.82130275374963
H        -0.59703596820800   -2.22522051622595    0.44307708117854
H        -0.01230167771068   -2.74066931469107   -3.20724286836265
H        -3.92219980909733   -5.34959557725050   -0.59312036070798
H        -4.12053288731408   -4.50747529322051   -3.19071792266498
