64
 energy: -119.533193929645 gnorm: 0.000397333951 xtb: 6.3.3 (4ae9cef)
O         0.83806108603761   -3.09254076441798    0.34268641321643
C         1.11936470317694   -1.91861465399025    0.56538685044259
C         2.37377257952898   -1.51630022439513    1.26808717932372
C         2.34471017680808   -0.96892413517884    2.54653396691390
C         3.52168074781850   -0.57284709054223    3.15066270328122
C         4.71980441201200   -0.72796539613658    2.46592128475487
N         5.94702924167045   -0.26351420050284    3.07472460988821
O         5.86848447604898    0.24687998331207    4.16976409037936
O         6.97074747077312   -0.40409304096896    2.44477579881711
C         4.76438714402370   -1.31599406074058    1.20871082528743
C         3.58608199414696   -1.72142603486781    0.61570977784923
N         0.33412797121956   -0.91066958376728    0.15440960621726
C        -0.93952455675351   -1.15054818666696   -0.50439289092247
C        -0.74320879951043   -1.70948292224883   -1.95513591916398
O        -0.24391839272108   -2.92136487980659   -2.02043417192627
O        -1.05756475815435   -1.05749665981284   -2.90889066108408
N        -1.56392061835033    0.14241076918010   -0.53020783385711
C        -2.73089172339111    0.41905901847891   -1.19267418931816
C        -3.64454621460164   -0.75084493048724   -1.38471559171500
C        -4.11719139116873   -1.47717181186852   -0.29447327345616
C        -4.99761291995728   -2.52280288868426   -0.48948326768164
C        -5.39739812151717   -2.83854841248680   -1.78241000290376
N        -6.30945670763322   -3.93991695528339   -1.98771178675207
O        -6.66503092472733   -4.17127721138953   -3.12176899221555
O        -6.66225766394990   -4.56391364631919   -1.01013689175208
C        -4.94574176412582   -2.11058721919185   -2.87627592606532
C        -4.07560748948121   -1.05787166247782   -2.67161553909587
O        -3.02747583007222    1.53970710795948   -1.53191282874799
C        -0.56252602134156    1.19899626389508   -0.41794753379308
C        -1.08249512104956    2.38208556971371    0.35469253669507
C        -0.79711054975994    3.67317298845230   -0.06237010839187
C        -1.25001098464409    4.75664351807130    0.66960010722531
C        -1.99146762981263    4.55751591831182    1.82125535424136
C        -2.27705333937733    3.26990785510942    2.24286009123964
C        -1.81933318974781    2.18662734081107    1.51591350126813
C         0.60895295597564    0.51306853385730    0.31517973830122
C         1.95516831260964    0.89677359771441   -0.23898881877946
C         2.81733466390405    1.69093863018633    0.50439409656320
C         4.06704720629015    2.01644262167984    0.00803576287972
C         4.46246596029516    1.55268005696073   -1.23504761621608
C         3.59696962588412    0.77897737758209   -1.99028092108559
C         2.34609375494321    0.45486273608892   -1.49745668698063
H         1.40686425638490   -0.85865926226473    3.06945855772729
H         3.52991706593470   -0.13684126164143    4.13806079957777
H         5.71594220992317   -1.44311932117608    0.71629309157828
H         3.59682660928613   -2.18203832413673   -0.35951630081883
H        -1.52449788495535   -1.88955763172749    0.06626958607420
H         0.07617917392613   -3.26011167609916   -1.13622886854930
H        -3.81486881456652   -1.20786700089472    0.70684894256535
H        -5.38357529821585   -3.09878978010137    0.33780936873563
H        -5.28479606382518   -2.37739511701383   -3.86540959672529
H        -3.70885047932791   -0.47433326950260   -3.50048414780636
H        -0.25389966220469    1.52089347694029   -1.42157262627344
H        -0.22634099052290    3.82880788974162   -0.96558919796926
H        -1.02847712055157    5.75899868132583    0.33570222635387
H        -2.35061492279362    5.40334535856571    2.38783923766126
H        -2.85868787205497    3.10941974808079    3.13850537459938
H        -2.04751363978998    1.18161138716693    1.84289501553777
H         0.56368699737367    0.77220932915085    1.38077829860625
H         2.50842430188149    2.05233103743939    1.47453538872969
H         4.73357093225651    2.63035773125161    0.59437478444120
H         5.44109329166404    1.79880153917431   -1.61712433518601
H         3.89506176310191    0.42675442138197   -2.96588920457755
H         1.67361837575063   -0.14685127079906   -2.09252923714354
