78
 energy: -142.992328598062 gnorm: 0.000383564474 xtb: 6.3.3 (4ae9cef)
C         1.88632017271494   -2.78535253291733    1.10115401698929
C         1.53998814318227   -3.93132130976407    0.19115320318467
F         1.97504031627739   -5.11227514911807    0.65204339887216
F         2.02220708137929   -3.81754672515472   -1.05232409227591
F         0.19693659220084   -4.07694644533430    0.05157303707886
C         2.66943954237204   -3.03989832852895    2.22126282759480
C         2.98867509791431   -2.01804737717238    3.09527956940554
C         2.51305233189221   -0.73950500599535    2.86015074413546
C         1.73406378015097   -0.48478402809978    1.74759140406484
C         1.42240953793941   -1.49501283791633    0.84335867829416
C         0.59898363673646   -1.14254268999294   -0.37355614971992
C        -0.85950718277758   -0.79179673893146    0.00123535375117
C        -1.87289041080993   -1.83362811562962   -0.41556163881753
C        -2.32693336865429   -2.06204424346922   -1.71843832982936
C        -1.87850216165742   -1.25288574812122   -2.90842221969696
F        -2.27031363784354   -1.79316525486038   -4.07181999007561
F        -0.54733166979783   -1.11405116808088   -3.01465468325375
F        -2.38476532055053   -0.00321409138729   -2.90932124638854
C        -3.27635045006974   -3.05015657140320   -1.96359034008164
C        -3.77102076931151   -3.82907643019663   -0.93650303697712
C        -3.31735971919651   -3.62263260100052    0.35315669332156
C        -2.38479581144285   -2.63566212453693    0.60031461472655
N        -1.07338685271124    0.52706802874209   -0.56278235187537
C        -2.04817174808046    1.38783279108769   -0.16237639514473
C        -3.16489334978761    0.73814436675107    0.58608783441124
C        -3.13295825586729    0.69198516045605    1.97958005565624
C        -2.04969352731596    1.39163964111970    2.75020768086194
C        -2.45029750264932    2.84897579889101    2.99313368717338
C        -4.16734161582949    0.04244595260575    2.64151632551994
C        -5.20994654440830   -0.53698104571206    1.94138341981048
C        -5.24678053046511   -0.45724672909937    0.55984652788823
C        -4.22411795622420    0.18108023902961   -0.11744940424254
O        -1.97960006783471    2.56976703164417   -0.43284953325760
C         0.10246237844909    1.07589035681423   -1.20715067680737
C         0.46738435204687    2.41205037467076   -0.52394839278153
O         0.55475295454695    3.40828454028238   -1.38359463294984
O         0.71589420558439    2.49036550908036    0.65084232002047
N         1.11047341119607    0.07031415374324   -0.99869838683280
C         2.42079206355611    0.14365097503810   -1.35956923120567
C         2.79333786728973    1.39654873399938   -2.08149888217293
C         2.38337759130801    1.54229624275389   -3.40160553082949
C         2.73492545934759    2.66965691379038   -4.11972097537630
C         3.49632597904254    3.65568762520057   -3.51581891477298
C         3.91117739773415    3.50495297804071   -2.20531873322121
C         3.57432963572969    2.37589898685516   -1.46842296190831
C         4.06825752322212    2.21089146212527   -0.05999288280629
C         5.35011731685280    1.37586865498579   -0.03665270241757
O         3.19152601279731   -0.76023997940001   -1.11550079313717
H         3.03167317094077   -4.03985755761852    2.40220888002228
H         3.60638544930486   -2.22265585849110    3.95575169675542
H         2.75229778058229    0.06416805529589    3.53972664546473
H         1.37480655437568    0.51773808110531    1.56450067511111
H         0.63698357714953   -1.95183487448718   -1.10833062400131
H        -0.92409597668188   -0.71688743169577    1.09608242767798
H        -3.62607847115832   -3.21154962832605   -2.97130986910421
H        -4.50401977177049   -4.59142883389190   -1.14749411978869
H        -3.69014568346947   -4.22448050125271    1.16683493690605
H        -2.04056347054449   -2.47533798295878    1.61060638282369
H        -1.10901724383219    1.38690608164807    2.19630604650115
H        -1.89132898965801    0.89037440076378    3.70806623813759
H        -3.39228609926906    2.90187011916468    3.53479268278172
H        -1.68215802821955    3.35743623644207    3.57019942600371
H        -2.56601944319464    3.36103636253208    2.04116377650027
H        -4.15238675895997   -0.00490216897116    3.72107747592569
H        -6.00219891775503   -1.04032672964711    2.47523559569648
H        -6.06842324848363   -0.89042959622821    0.01027183844020
H        -4.24588434482291    0.25958182277328   -1.19337979484373
H        -0.08768953800841    1.28355788803564   -2.27082468970768
H         0.73158977462602    4.24764176117052   -0.92951331347495
H         1.80002470639435    0.75918775183880   -3.86413487426480
H         2.41572835655153    2.77853721252143   -5.14491936164837
H         3.77093682656197    4.54179584620940   -4.06877347195749
H         4.51060273293434    4.27492044495523   -1.74016532504837
H         4.26563775381049    3.19397025303876    0.37399254446611
H         3.31018201658392    1.71579067784086    0.54955957019546
H         6.11359190022380    1.83696345957769   -0.65953328793999
H         5.72896450676915    1.29575916077833    0.97963910059317
H         5.14759895083558    0.37717230198880   -0.41408349213300
