84
 energy: -130.501153768296 gnorm: 0.000484003300 xtb: 6.3.3 (4ae9cef)
C         2.88834893630105    3.44531529823113    1.67152005074158
C         2.56694010480158    3.02658478456836    2.93019081251545
C         1.88372619663762    1.81486402372906    3.10671481556345
C         1.56146079873336    1.03331203781829    2.03296248996992
C         1.90155198428418    1.41942890258456    0.71819623029006
C         2.55622359746066    2.66993451005894    0.54070378448770
C         2.86031412844419    3.12471012857568   -0.75762171966521
C         2.52882857149465    2.37711203026799   -1.85086015532227
C         1.92196582895361    1.12850491471047   -1.68124290966522
C         1.63276058389359    0.63334687215454   -0.43251311698984
C         1.02773901522418   -0.74348566835415   -0.34212010958786
C        -0.40778023734480   -0.76504587101979   -0.92491238057052
C        -1.47061662965401   -0.64224245312730    0.13693824943707
C        -1.65927150015521   -1.70159037242935    0.99136892787169
C        -2.68433790504252   -1.69697014422436    1.94393948591932
C        -3.53189085473354   -0.62996893606409    2.02517037753398
C        -3.35379001771114    0.49305714712776    1.19232733501667
C        -2.28851335381320    0.51328643050200    0.24998049429124
C        -2.11060656422774    1.68370093862896   -0.51929194001553
C        -2.96097763401397    2.74679345742101   -0.39938461752950
C        -4.03526099224680    2.70553620688089    0.49985327231838
C        -4.21806472053200    1.60415662993506    1.28526839568981
N        -0.48011043282866   -2.04618744960475   -1.61743441147501
C        -1.57430544749632   -2.57506728858773   -2.19612577632891
C        -2.77315750452988   -1.69349220419415   -2.20112281777631
C        -3.86077876130198   -2.02227882698287   -1.40342472117779
C        -4.96716316105621   -1.19198484391380   -1.32390545166294
C        -6.10838542081107   -1.54747231153825   -0.42368833262681
C        -4.99971482268481   -0.02109149340974   -2.08807362568004
C        -6.17340453651494    0.90386658586446   -2.01251503328901
C        -3.92973503697312    0.27305793913345   -2.92104936885052
C        -2.81773319226896   -0.54545328775636   -2.97893504050489
O        -1.56299342914026   -3.71288455963563   -2.65884865479015
C         0.80665429474780   -2.71951513280259   -1.61937417186476
C         0.80115043009306   -3.92236263415952   -0.62730704037255
O         0.05085266738900   -4.93674417617909   -0.99771729088534
O         1.42147667166920   -3.88398697863057    0.39860976009309
N         1.72516638876585   -1.70930311992060   -1.17378581397842
C         3.07311475169494   -1.89555442112173   -1.29675988002952
C         3.90557164554663   -1.01412712619455   -0.42982773303355
C         4.75716603974884   -0.06240897543343   -0.97022947341418
C         5.49398368246902    0.74761115357692   -0.12767028733224
C         5.42570290870555    0.60597695976623    1.25126926348023
C         6.21779265783583    1.51094208555638    2.14336699992180
C         4.61591706576545   -0.39585446473691    1.79496038428150
C         4.55597723133449   -0.60828673686629    3.27591620088208
C         3.85959647158840   -1.18989091215459    0.94729584128871
O         3.52168967883328   -2.71717245451775   -2.06779411176146
H         3.40027406758742    4.38454998618242    1.51821106920525
H         2.82447335356276    3.62505100148745    3.79197837449780
H         1.61073261246594    1.49991632559768    4.10334732422579
H         1.02728421548224    0.11267814819084    2.20622431554578
H         3.35627508186635    4.07770486837767   -0.87053225543002
H         2.74802313735776    2.72947999482759   -2.84763577964062
H         1.71084792228313    0.52652210522241   -2.55406822647272
H         1.00215244955174   -1.10525955408908    0.69041338918056
H        -0.50756266615998    0.03256598824044   -1.66575903363760
H        -1.02198294901044   -2.57164273411996    0.91935083344634
H        -2.80520057236546   -2.55038074089919    2.59377800804049
H        -4.34626375696485   -0.62581882058123    2.73517163219941
H        -1.27971608458546    1.76180530350800   -1.20292746069900
H        -2.80501973101683    3.63151678318475   -0.99860211543543
H        -4.70253720983510    3.55155751554865    0.57354347702490
H        -5.02746218151343    1.56700610215344    2.00107987382250
H        -3.82798948627245   -2.92997486180868   -0.81870937105897
H        -6.28396032140129   -0.75056804134302    0.29757432889849
H        -7.02354710374493   -1.68266557366486   -0.99922466276573
H        -5.89934577607457   -2.46649827218843    0.11676056259551
H        -6.04152954131702    1.74956130999612   -2.68192975950619
H        -6.29134830672689    1.28101084112289   -0.99729134839712
H        -7.09153756743135    0.38440573767559   -2.28377164599862
H        -3.96216405347863    1.16606081798584   -3.52824261357244
H        -1.99565052759079   -0.29963082758313   -3.63531234532041
H         1.07324665226969   -3.08566166794790   -2.62182438994878
H        -0.51644760080210   -4.71549647732340   -1.79089227712991
H         4.82371808250635    0.05321983196380   -2.04126946443298
H         6.13733388718804    1.50627445238075   -0.55019473063326
H         6.91766593430275    0.93742530040974    2.75022696333850
H         5.55535153130948    2.05046524348245    2.81972271288491
H         6.77965149465775    2.23376731728628    1.55755695311078
H         3.88182767268718   -1.42510982771150    3.51849792342105
H         4.20687943962657    0.29406005859694    3.77701614505735
H         5.54416411931480   -0.84633536065471    3.66804435562087
H         3.23628160488135   -1.97223846690474    1.35667605254803
