60
 energy: -105.227053340831 gnorm: 0.000620952296 xtb: 6.3.3 (4ae9cef)
C        -2.69973857886927   -3.12042329235301    0.69883773564618
C        -3.88196719283851   -3.46133527490364    0.06687468314243
C        -4.36742985592770   -2.68045531744265   -0.96769589062120
C        -3.66472794358711   -1.55737489214590   -1.36791522782659
C        -2.48232342281780   -1.21740297748631   -0.73661027834957
C        -1.99066232107297   -1.99513351120002    0.30323735779641
C        -0.68627999240675   -1.64984377174688    0.98090773839977
C         0.51843387265525   -2.03358221300835    0.09272884299582
C         1.76905950906820   -2.48994745287753    0.80656633092970
C         2.00079391744144   -2.29123582320301    2.16080469477447
C         3.20529369329227   -2.67989846988402    2.72599943914959
C         4.18860784058499   -3.26302340478546    1.94745189345279
C         3.96443383004216   -3.46186281851382    0.59450147010720
C         2.76349405465930   -3.07748718905150    0.02939860549049
N         0.80317808709942   -0.78039673246780   -0.60856968423351
C         0.69970247235408   -0.68828962446313   -1.96753080397468
C         0.59742345885090    0.70889668367264   -2.49079914347640
C        -0.51791589933809    1.03702406073919   -3.25462640638231
C        -0.71369024368237    2.33705118801161   -3.68329152866988
C         0.22236831314655    3.30529757291827   -3.36205366601186
I        -0.10590051592881    5.30941916673485   -3.95084779423632
C         1.36489407998272    2.98306203075385   -2.64969624091701
C         1.55036104297493    1.68343133429372   -2.21287399030339
O         0.66774374471922   -1.66945146911339   -2.67537052423477
C         0.57310083538315    0.27383388346242    0.33453519897083
C         1.80870284381586    0.53826774184061    1.22049783818069
O         2.93835861299444    0.46478522250189    0.52375628648304
O         1.75023395074222    0.83322947824167    2.37910026746736
N        -0.53270429071292   -0.20517199247973    1.13127178033192
C        -1.42090488704441    0.56340369731277    1.81511312535348
C        -1.21129199545066    2.03378912026612    1.59463733881799
C        -1.67022932138933    2.60821335814049    0.41273662167503
C        -1.44832054328515    3.94812550914801    0.15269192097565
C        -0.76621759504966    4.71115520187181    1.08407939072180
I        -0.36525597990550    6.74394584655758    0.65839997165171
C        -0.33422778225274    4.16233735583022    2.27820460387760
C        -0.56150177851335    2.82062472626289    2.53411542228079
O        -2.30118922230148    0.09317966163317    2.49696621701210
H        -2.32574259666275   -3.72819458889013    1.50965650801891
H        -4.42802898168283   -4.33594496914653    0.38709332254933
H        -5.29255730134441   -2.94299519222129   -1.45832666173799
H        -4.04037571092760   -0.94250241396021   -2.17280602473786
H        -1.94323622751271   -0.33531011399528   -1.05356519667918
H        -0.65357072657418   -2.14067039694264    1.95696787862063
H         0.23590783487963   -2.77571622511021   -0.66118367004080
H         1.25794664423249   -1.82897185824611    2.79255573005501
H         3.37163960814288   -2.52010023105552    3.78083624695952
H         5.12560513222665   -3.56286469881456    2.39241082840205
H         4.72598123700186   -3.91814128641624   -0.01989477031341
H         2.58615636686289   -3.22494401753503   -1.02566434146908
H        -1.23589745705995    0.26910592118365   -3.50121247654950
H        -1.59020611348429    2.59202423975745   -4.25876884240768
H         2.10201234297484    3.73905697227168   -2.42724108096571
H         2.43823069388852    1.42276479699556   -1.65702672216917
H         0.33900937731112    1.22598035219920   -0.16064843712556
H         3.70924155189754    0.62374753190488    1.09382676911844
H        -2.20829310583760    2.00724421228366   -0.30681187870379
H        -1.80149747101243    4.38938873451135   -0.76674136971515
H         0.18118701703966    4.77054836993468    3.00518600920310
H        -0.21721891178644    2.37974024823226    3.45582558324501
