60
 energy: -133.337608198720 gnorm: 0.000794498201 xtb: 6.3.3 (4ae9cef)
C         2.47434343962899   -2.13153144248309    1.28366058875277
C         2.16252534852180   -3.30348824655036    0.39426978135556
F         2.84022728172859   -4.40694887838615    0.72347844961062
F         2.42098266955024   -3.08196975119594   -0.90612757139688
F         0.85347578029154   -3.64971719569551    0.44319565052679
C         3.41383550049433   -2.29530824508242    2.29346221887581
C         3.70659740987442   -1.25050955137528    3.14947090367490
C         3.05340818903270   -0.03963717619634    3.00497458260886
C         2.11752604472038    0.12337616674776    2.00172534722383
C         1.81870642725927   -0.91086226867163    1.12308639475583
C         0.78390974972044   -0.67302375839910    0.05072873760700
C        -0.63976559978351   -0.54105129211340    0.63434673188890
C        -1.47576755057153   -1.76885258660867    0.37684644710232
C        -1.84994912580802   -2.64870555366726    1.39286110050556
C        -1.43939421475528   -2.40596359226511    2.81927260340935
F        -0.09481804510486   -2.33537032341705    2.96330645607592
F        -1.84110220446918   -3.37099806969137    3.65169240658659
F        -1.91412479185461   -1.25550944798061    3.32744769811926
C        -2.59898628434593   -3.78156505259703    1.10187010162683
C        -2.97873421518416   -4.05177178529126   -0.19882478948355
C        -2.60604915587654   -3.19060098303863   -1.21530071230467
C        -1.85927386684737   -2.06561027622412   -0.92555895851947
N        -1.18453763729746    0.63702496887466   -0.03985252576701
C        -2.50781546438887    0.95212322070803    0.07911741097826
C        -2.88311121555401    2.28479078266801   -0.47553845347606
C        -3.61606491366439    2.47007696850048   -1.60857298063287
S        -3.91414778490866    4.12545192479235   -1.93549563072663
C        -3.08831129646326    4.60071485873111   -0.51329732692040
C        -2.59716108519640    3.52577372528659    0.15523927709351
Br       -1.64946132120542    3.66859289246121    1.78196868765659
O        -3.31023832631127    0.19211240629354    0.56584370341390
C        -0.12900876376979    1.49864516330702   -0.52389747662903
C        -0.49614965904315    2.10477405019712   -1.90432586531428
O        -0.70365424697048    1.20607273585724   -2.85675111080538
O        -0.59623893276586    3.28237504720214   -2.09071124803963
N         1.00248720821400    0.60471106563809   -0.62541089708810
C         2.23210343938045    0.92612658267608   -1.12282157959546
C         2.28524466308756    2.27454368786033   -1.76108619279042
C         2.37708971336377    3.46739054630981   -1.11174537748874
S         2.45070205298843    4.79613479160087   -2.19318692465295
C         2.37394196140516    3.75522868722731   -3.55010302011373
C         2.29716111837321    2.45271480883231   -3.17191832650411
Br        2.16601878511686    1.01168761658172   -4.38197074814276
O         3.16414486100611    0.16154659070064   -1.08477688887838
H         3.91383691263023   -3.24429482887956    2.40660345177321
H         4.43951583773252   -1.38571578501740    3.92901388814586
H         3.26873443715518    0.77922840310854    3.67404233201655
H         1.61015088706918    1.07164616793034    1.89825543898065
H         0.81846149988525   -1.46610742169120   -0.70292971023218
H        -0.57907821061766   -0.32207262712645    1.70554842811798
H        -2.88224472634823   -4.45107818660570    1.89865812057979
H        -3.56168597220611   -4.93265691868632   -0.41597440304838
H        -2.89417985103759   -3.39413581320438   -2.23524962297263
H        -1.58320368679480   -1.39576489944229   -1.72776870327952
H        -3.97745582840473    1.71653713465931   -2.27940348353345
H        -3.00099883312526    5.63443791199973   -0.24580543528612
H         0.08027514268898    2.33495599568226    0.16640165107061
H        -0.47071580759807    0.30147410424195   -2.59127681661759
H         2.41433841956421    3.64068850028546   -0.05477170293864
H         2.38368783778561    4.14986345063041   -4.54593610694969
