70
 energy: -100.504035741375 gnorm: 0.000263491132 xtb: 6.3.3 (4ae9cef)
O        -2.29297326940663    2.15402603055034   -1.65677145692175
C        -2.35780009689958    1.18549574056735   -0.91577036212020
C        -3.62722061520793    0.74976999193293   -0.22875063517469
C        -4.42540440067869    1.96295219629661    0.25545704889798
C        -3.67969018969435    2.80095618983049    1.29560105889292
C        -3.24064547538234    2.04236449224217    2.54944095999574
C        -4.40049594017711    1.40478358929531    3.30572091812424
N        -1.22707014841052    0.48333461733588   -0.66931634004063
C        -0.02353122792030    0.96841356355173   -1.31654375192863
C        -0.37705866708727    1.32299462949398   -2.77867583091967
O         0.07248067011875    2.52333849244762   -3.12547417303583
O        -0.89578859144660    0.54761279588288   -3.53486203259513
N         0.90723009138661   -0.11850394669657   -1.20697920123925
C         2.14205941687831   -0.24339565937211   -1.76983738675181
C         2.74205461318809    1.00238833588785   -2.38890344983894
C         4.23962712871814    1.06024409759509   -2.07817758742098
C         4.49052223584932    1.26265282190496   -0.58565096791231
C         5.97946650930581    1.32913687680866   -0.25693931235439
C         6.21897063187173    1.48047832611780    1.24020270690597
O         2.72424896541147   -1.30633130728266   -1.72994259651778
C         0.34321406198933   -1.27391611678502   -0.52141968244595
C         1.20937565012848   -1.69752006253180    0.63816048371591
C         1.79718113508877   -0.74359244896930    1.45912799962315
C         2.58954307095899   -1.13107201151333    2.52431285129778
C         2.78845249301864   -2.47566123217442    2.78774557372580
C         2.19095544962131   -3.43002282238709    1.98245665767107
C         1.40618000840981   -3.04304939539436    0.91062890203394
C        -1.06055395455396   -0.82051649462321   -0.05752449695180
C        -2.09843980653709   -1.82943373678654   -0.47973558556406
C        -2.63631912174654   -2.70466712345386    0.45370713678696
C        -3.55851983001946   -3.65987469934975    0.06322125632814
C        -3.94897516140602   -3.74489949227234   -1.26208340586971
C        -3.40812851001599   -2.87811861366165   -2.19759243420275
C        -2.48147070596050   -1.92601322406601   -1.81246018079159
H        -3.41008687805310    0.07501450415266    0.59585448601683
H        -4.22137477202293    0.20156228632146   -0.96476241307434
H        -4.63723485982245    2.59991601766249   -0.60472349936102
H        -5.37631555548697    1.61844428143129    0.66384459715054
H        -4.33084333198907    3.62543017084483    1.59574736810466
H        -2.79683804865445    3.23603531226289    0.82230352678921
H        -2.73504129790068    2.75015976262084    3.21090485207366
H        -2.51073654724762    1.27441184293646    2.28436126859039
H        -5.15951614227957    2.14983339044052    3.53356299753159
H        -4.86127149343261    0.61114224129880    2.72293935676761
H        -4.05019251336507    0.97625878364136    4.24230987618407
H         0.33263148152610    1.88788946779449   -0.82008683871753
H        -0.21889466094913    2.74705710344254   -4.02354169779358
H         2.24891561773592    1.90323374109384   -2.02705500011592
H         2.59395905318185    0.93988945590893   -3.46995860222302
H         4.69630177697551    0.12120346322491   -2.39355534881993
H         4.69612491530563    1.87481142497789   -2.64423875451215
H         4.00682117236908    2.18661733208258   -0.25555248951358
H         4.04240299943902    0.43163328287727   -0.03616694762079
H         6.43172472456913    2.17147261834098   -0.78608600164765
H         6.46310681598680    0.41626715015751   -0.60998056216272
H         7.28395513523652    1.52143064410454    1.45664628792823
H         5.79073748865212    0.63696464769466    1.77754939692866
H         5.75840895123554    2.39394550618478    1.61128852493855
H         0.26186000229493   -2.10718791435743   -1.23112577702375
H         1.64472052775893    0.30696852907201    1.25520254110521
H         3.05438039429645   -0.38145383615580    3.14810961486606
H         3.41070239915102   -2.77821867414329    3.61688563199703
H         2.34386587058798   -4.47985720465399    2.18383928503054
H         0.95015732598807   -3.78713796429433    0.27450458714531
H        -1.06619612576227   -0.71611635184131    1.03827046192915
H        -2.32910106141612   -2.63956574301558    1.48828426021820
H        -3.97268855325249   -4.33663325846781    0.79567411431911
H        -4.67159036057602   -4.48748399329842   -1.56585560480677
H        -3.70581798462050   -2.94479265395231   -3.23314105300057
H        -2.05850588484761   -1.25349776681481   -2.54462712862759
