74
 energy: -128.140443049610 gnorm: 0.000373532615 xtb: 6.3.3 (4ae9cef)
C        -5.58805978579603    1.02811819321072   -1.54118268204385
C        -5.35516488693080    2.32647907936080   -1.89073333429109
C        -4.17825574650705    2.95394121247184   -1.46088406709904
C        -3.24720042416399    2.27402249040997   -0.72572740139643
C        -3.42873633802554    0.91471735410145   -0.37682883381790
C        -4.65423615190732    0.29867386177182   -0.77419300350462
C        -4.94231639077787   -1.02610383725480   -0.39235722102057
C        -4.06612674524469   -1.72630527918186    0.38539742791373
C        -2.85306520598711   -1.13994321472888    0.75645560430009
C        -2.50062614929281    0.13267221214428    0.36387818585764
C        -1.09353812698052    0.52109271425637    0.77966468276110
C        -0.03416038949937   -0.37497309107597    0.05306826680857
C         0.78839627236898   -1.16683582536085    1.03624596242775
C         1.63209309762428   -0.47110913011825    1.86975901236527
C         2.47052446955885   -1.13092700431051    2.77417703460029
C         2.46812459489955   -2.49514909880784    2.83642376427446
C         1.59678055817772   -3.24803101797890    2.02397330530625
C         0.71692296992243   -2.58404266763347    1.12388938189214
C        -0.16624457606359   -3.38059061098447    0.36084313893508
C        -0.15863157086833   -4.74402340830950    0.45951120383789
C         0.73280459537250   -5.39420196050113    1.32426170748952
C         1.58660568780300   -4.65742855864330    2.09287185905950
N         0.79565933929428    0.57759856732272   -0.69734706191080
C         1.97221517597340    0.26124077977108   -1.23729732037402
C         2.38562222421599   -1.16461744422460   -1.18124221658904
C         3.53932426222922   -1.60545169573037   -0.60910789179647
S         3.78644031627843   -3.28058825502696   -0.84182439059961
C         2.35404996455803   -3.40455740254373   -1.78576416076923
C         1.70501348024721   -2.21117708723068   -1.88273454018245
O         0.55712905568603   -1.93718994710958   -2.55316716727565
C         0.00871751101630   -2.98353306488681   -3.32289891311925
O         2.72396269859998    1.06886387600874   -1.79018247635363
C         0.00252580958666    1.81378387625766   -0.79581802388685
C         0.48133076009922    3.20249077378297   -1.30955176615619
O         1.67194530605419    3.34212819941959   -1.80249751059388
O        -0.34299430025982    4.07900718586040   -1.29605353400310
N        -0.62441629848787    1.86203197497296    0.50265572112520
C        -0.43645349801230    2.70379900525982    1.56677189003220
C         0.41665096149356    3.89913751834969    1.37763490517367
C        -0.01900847457843    5.17267521303712    1.57410690882288
S         1.22976586983740    6.32377961021608    1.38761979438071
C         2.38904681510124    5.08720817989865    1.09377995651554
C         1.82113669315099    3.85022333891451    1.11040203072198
O         2.43497000312801    2.64567107290805    0.93703994574768
C         3.82709995087949    2.68211110470017    0.71896968375018
O        -0.97535444151240    2.46903779946782    2.62866419719516
H        -6.50243163028270    0.53317018710007   -1.83688134915139
H        -6.07519486853038    2.87736971248753   -2.47752902215143
H        -4.00227519532129    3.98993965769820   -1.70757032166963
H        -2.38040778356573    2.81448432767591   -0.39068598471098
H        -5.87607698472946   -1.46676256624598   -0.71056651678381
H        -4.29181647960178   -2.73036252753330    0.71246782444617
H        -2.16836011775660   -1.70809683285614    1.37008271154287
H        -1.02975646843219    0.38222696659677    1.86616878329265
H        -0.53894263963735   -1.02063143446758   -0.66958016920438
H         1.67171236553277    0.60616027047645    1.81085803136639
H         3.12283407331963   -0.55078373079358    3.40912383256312
H         3.12736923593702   -3.01965073476695    3.51235030294854
H        -0.87478064217324   -2.91464629497646   -0.30608686465928
H        -0.84759619969258   -5.33112936399609   -0.13085802071718
H         0.73096124765873   -6.47229911645263    1.38144343459367
H         2.27087058358997   -5.14210956352780    2.77383822273660
H         4.23912919481990   -1.03535238222000   -0.03270919596073
H         2.08457162744168   -4.35365215423705   -2.20014722661594
H        -0.27682655076972   -3.83046832983540   -2.69158784078815
H         0.71605064512740   -3.32357299500126   -4.08456544228369
H        -0.87529237608885   -2.56867735931747   -3.80364031660162
H        -0.80416957763693    1.57672837153948   -1.52242804119564
H         2.21002422383886    2.46171423458832   -1.82365466371781
H        -1.02071685715070    5.48749315344845    1.78421964522610
H         3.40906982353003    5.35809625248581    0.91600531079046
H         4.34642644558454    3.11781503714579    1.57807975894772
H         4.06794674945996    3.25157449892928   -0.18246245613517
H         4.13741021318626    1.64769212375576    0.58564151934316
