66
 energy: -122.476024087191 gnorm: 0.000313715002 xtb: 6.3.3 (4ae9cef)
C         5.07604847597905   -2.58645141576250   -0.43720550049847
C         4.54787509944069   -3.27692650081685   -1.48994607598842
C         3.26464821060775   -2.95962056910058   -1.95664016962263
C         2.53229426329725   -1.96722797551005   -1.36705781651170
C         3.03984519720358   -1.23928893777263   -0.26814753851537
C         4.34467248457594   -1.56140750025772    0.19909671048870
C         4.88893019774322   -0.86188296293939    1.29553995942566
C         4.16771709110505    0.11038872792653    1.92524763973098
C         2.87625914577833    0.42027235507331    1.48174939125017
C         2.31734048314688   -0.21644923667205    0.40293691708496
C         0.90730046409827    0.12101669497927   -0.01402697104442
C        -0.11117597456443   -0.75766979668298    0.73555957164810
C        -0.47418233046882   -2.01742006267143   -0.00393373659551
C        -0.02189507321692   -3.20540159284238    0.51392085550671
C        -0.25577485136430   -4.42292295830922   -0.13517404591558
C        -0.95506727005095   -4.44630652634061   -1.30659879307654
C        -1.43989102916286   -3.25189860652828   -1.87673624723699
C        -1.19268038691171   -2.00834880525703   -1.23050211623686
C        -1.67760855575522   -0.83634008073101   -1.85052409703467
C        -2.37595660981338   -0.88994608504219   -3.02497401779149
C        -2.62751065953916   -2.11783142886578   -3.65090364642669
C        -2.16438668860330   -3.27222988002289   -3.08709190479846
N        -1.21717247036620    0.15814983974700    1.00230379884302
C        -2.43856442570281   -0.29078493018314    1.38459988060286
C        -3.42708464398189    0.78470295252065    1.68182620769733
C        -4.47213775093941    1.18130740870542    0.89304485265417
Br       -4.94909086485664    0.69182955171862   -0.83560750383429
O        -5.21854373631842    2.11417438712444    1.50416181024380
C        -4.67483400971963    2.31053834426496    2.71962774181923
C        -3.57854884463998    1.52553807554142    2.88831998042120
O        -2.71529442456292   -1.46332310461386    1.47948643519249
C        -0.76166683327478    1.53028597053863    1.02571120312237
C        -1.71678271406594    2.46391509362127    0.25321740887949
O        -2.18029326950130    3.45540932999007    1.01936552310464
O        -1.98753929826554    2.33844961185720   -0.90489520078962
N         0.52305944425650    1.47705725362260    0.36339520344409
C         1.15172370097231    2.52460292785155   -0.23952523465525
C         0.70662658976557    3.86493023781102    0.21546910496793
C         0.34662320268974    4.91799265150259   -0.58290870298954
Br        0.09410785055925    5.02129616328474   -2.41987072490686
O         0.07901970193421    6.01272636417334    0.14243182010930
C         0.29848550495195    5.68826671298786    1.43039804021260
C         0.68144179053759    4.38981010243351    1.54010511121640
O         2.04446579655077    2.37062719302827   -1.04021014040600
H         6.06591090614880   -2.81584574585945   -0.06900025198792
H         5.11154305632373   -4.06364419602730   -1.96919447947830
H         2.85249293327598   -3.50548559348610   -2.79223781235906
H         1.55037866795253   -1.75145527875077   -1.75519438455101
H         5.88496170799019   -1.11386796170637    1.62962961284994
H         4.58006141834503    0.64521341443677    2.76801388891870
H         2.31915347223010    1.18689920428221    2.00137348133307
H         0.80327594926672    0.02290366151973   -1.09936212700750
H         0.32452084332109   -1.04742756847311    1.70478616732174
H         0.52950813255282   -3.20816947754880    1.44336874159023
H         0.11813930235830   -5.33564923219667    0.30365434128899
H        -1.15016368563042   -5.37923804354435   -1.81567435319236
H        -1.51138544592153    0.12845218197309   -1.40351461935882
H        -2.74014638719359    0.02379742243335   -3.46915195601832
H        -3.18545670076272   -2.14164539749769   -4.57510106104566
H        -2.34759964889021   -4.22741769276623   -3.55861731446435
H        -5.15647552369701    3.02077192265425    3.36052121949779
H        -2.95494572710838    1.46140589467701    3.75547490054838
H        -0.67281730145903    1.91012583593912    2.05977607919295
H        -2.76678604614661    4.03889255232295    0.50745520710610
H         0.15186223856898    6.45906304293035    2.15950324023712
H         0.93916785891037    3.86870906134896    2.43845749676743
