68
 energy: -116.946775441599 gnorm: 0.000302790020 xtb: 6.3.3 (4ae9cef)
C         1.35549995848527   -3.28484246969607    0.84839505174098
O         0.07137611450118   -3.71345333423219    0.68560656828617
C        -0.25128173916700   -5.03838958334232    1.03160980389481
C         2.38579684535506   -4.04646674498494    1.38180937745856
C         3.65731898306321   -3.50717729542017    1.49926818036450
C         3.91216022079808   -2.21607123596604    1.08256299964574
C         2.88615280478029   -1.45190732920222    0.54820419762495
C         1.60927852018367   -1.96728830028420    0.43336999448054
C         0.45266299182401   -1.18978936881073   -0.14575878756698
C        -0.58734735442509   -0.79383303025370    0.93573575186215
C        -1.94348206639363   -1.39354275840610    0.68335620370194
C        -2.50487331246283   -2.26681007120283    1.59688318094497
C        -3.73353662784756   -2.85622404253513    1.35728743699503
C        -4.41410656736004   -2.55814257980422    0.19299190137580
C        -3.87447484965578   -1.67835732995922   -0.72979231729580
C        -2.63856456689403   -1.09027857832495   -0.49603498400441
O        -2.03197280377126   -0.21127378760419   -1.35079044886203
C        -2.57724268350722   -0.04827330989403   -2.63776959672065
N        -0.61228851261584    0.67042216706882    0.87983598012439
C        -1.65967115263582    1.40181200026534    1.36198787989551
C        -1.66292808754596    2.82772966551010    0.94554839499940
C        -2.06921628734186    3.33157605488294   -0.25647209434991
O        -2.00061533276606    4.66833548358103   -0.25660896463718
C        -1.54832790485314    5.04131771249202    0.95355159943528
C        -1.32414958296184    3.95882908729670    1.75108981044161
C        -0.82791289619497    3.92671583569997    3.15283309335806
O        -2.48555632943618    0.92869718102602    2.11162950407221
C         0.46647762908898    1.17510343779118    0.06879379943417
C         1.66420767694162    1.64779083327142    0.94746569955040
O         1.47318387767178    1.56400584836742    2.25922326396623
O         2.67332678195232    2.07045033338580    0.46553322648547
N         0.84067711672988    0.06417069308299   -0.76192747758859
C         1.16807870101127    0.11751689165916   -2.08280626368165
C         1.46720274772459    1.47678887675988   -2.59972664836386
C         0.61404237007967    2.44876365443534   -3.03471305423407
O         1.29463615788243    3.51530974073702   -3.47824109861790
C         2.60321683886054    3.23498716494470   -3.33195074809331
C         2.78490987434844    1.99438009848113   -2.80092082420903
C         4.05363096621976    1.30515528565001   -2.45394631594735
O         1.26829076503214   -0.88601727098153   -2.75433937552387
H        -1.31041655052792   -5.14619502708327    0.80264084049927
H         0.32468814455165   -5.75962467426974    0.44363491315402
H        -0.09111558808601   -5.22695359485893    2.09807547042439
H         2.21143735690794   -5.06109742043083    1.70293984448190
H         4.44983319960384   -4.11105353207005    1.91512110151209
H         4.90363598833781   -1.79960635428800    1.16613581313499
H         3.09143480628229   -0.45010407397955    0.20617361860601
H        -0.01490735391959   -1.81524878169937   -0.91494931038924
H        -0.24067803943573   -1.12109907583589    1.92484131388380
H        -1.96923224986022   -2.48804109807338    2.50733361767674
H        -4.15804238613338   -3.53744728025274    2.07853754087446
H        -5.37648652474669   -3.00582301805836   -0.00555978200775
H        -4.42896269363838   -1.45276635952919   -1.62677721188534
H        -3.53232991506467    0.48720594498738   -2.60648527670945
H        -1.84689605824817    0.53536068050396   -3.19683877733399
H        -2.71470445737179   -1.01067057425151   -3.13843031581892
H        -2.43354976936851    2.84534642361456   -1.13932023400231
H        -1.43137938708548    6.09095582474335    1.13427156005383
H         0.23164578564845    3.67129917068769    3.18140839301300
H        -0.95707181730049    4.89965047052220    3.61872023071732
H        -1.37846353195546    3.18166419596409    3.72391998382663
H         0.16561608435870    2.03398117085411   -0.54392360920851
H         0.59719339045339    1.19205285971585    2.46906806375632
H        -0.45606166692626    2.49380140646602   -3.09011723959567
H         3.30357901290029    3.98536026459699   -3.63920235844198
H         4.23004814080175    1.39226666840716   -1.38228107033038
H         3.98743680317720    0.24954693435622   -2.70903702023744
H         4.88916599192957    1.75552122375744   -2.98267500008533
