66
 energy: -108.838179143638 gnorm: 0.000651816459 xtb: 6.3.3 (4ae9cef)
C        -2.19308799133884   -1.30164791868568   -2.44091981176563
C        -2.66218011034900   -2.09429980587823   -3.47499211342459
C        -2.37057295508153   -3.44648046849450   -3.50821779114747
C        -1.60608779697571   -4.00993125381203   -2.49988065786805
C        -1.14253014079655   -3.22343991072849   -1.46162847360490
C        -1.43467637101646   -1.86519970013504   -1.42610653646039
C        -0.88252525920542   -1.04215763089032   -0.28908463128079
C         0.56001638800092   -0.55897306148441   -0.57609570081300
C         1.56003083947233   -1.37942870110187    0.19376026857719
C         1.62723526402102   -1.28239294310206    1.57873456386833
C         2.53051104128128   -2.04972731026547    2.28962695587941
C         3.36842602393040   -2.92969095193992    1.62534862231926
C         3.29030776201738   -3.04707584919839    0.24862387524051
C         2.38736921072080   -2.27807372477000   -0.46394927018481
N         0.54164603285237    0.84201129174087   -0.18883885656678
C         1.58601323787350    1.65221253608583    0.07191257308597
C         2.93027616427216    1.06794171985990   -0.06436896379169
C         3.54727581666658    0.67254591742179   -1.21990933105124
C         3.11092766645877    0.71626036310446   -2.63997399992518
O         4.78580942254192    0.21876863002965   -0.93946964153575
C         4.97885214423731    0.32303632870574    0.39540936943942
C         6.26967501339636   -0.14142944596499    0.96399857570178
C         3.87450631615989    0.85658270376914    0.98188557728034
O         1.39970289034152    2.82720071638500    0.38919831697098
C        -0.82506228317128    1.34456420688802   -0.09859256247125
C        -1.11050198026987    2.22422113488903   -1.35271533546831
O        -0.48589623758278    3.38610778428954   -1.33222625349515
O        -1.81981061015649    1.87666944904841   -2.25289335665465
N        -1.63584272592738    0.16784118154383    0.00769608470706
C        -2.73795951817809    0.03042420983453    0.81341960164725
C        -3.39397480162238    1.26279443596507    1.26886865367118
C        -4.02815442560524    1.39826055284803    2.48196011434532
C        -4.17045441873988    0.45706924037866    3.61992732266578
O        -4.55244321113264    2.63210001132836    2.59050073038991
C        -4.29521836618262    3.30020884125215    1.43920051166170
C        -4.79696370101583    4.69129800083791    1.29809311519703
C        -3.58174429086423    2.50949010552897    0.59540569201736
O        -3.12729344880262   -1.07833639734871    1.13095858717709
H        -2.41854347174458   -0.24739004418015   -2.42389288451543
H        -3.25846967207127   -1.64931782104384   -4.25751724690929
H        -2.73974705489903   -4.06222162908534   -4.31521820544257
H        -1.37669515630821   -5.06532818476534   -2.51815664001610
H        -0.55252364255994   -3.66343420858061   -0.66967217287177
H        -0.89928170530715   -1.66994191276271    0.61404290058364
H         0.76029293700393   -0.63686619225123   -1.65320080471553
H         0.97630966160253   -0.59448823308405    2.09942253368973
H         2.58002806094975   -1.96247554716533    3.36458271473922
H         4.07569539866162   -3.52663864365294    2.18115168010874
H         3.93387079832632   -3.73871771216224   -0.27422842441012
H         2.32298018211130   -2.37623971148264   -1.53777009956412
H         2.16493134173833    1.24311731525540   -2.72700822942335
H         3.00137871424743   -0.29110376155752   -3.04190724131076
H         3.85810796851017    1.23237572741954   -3.24106120625238
H         7.10339786105703    0.36121623417647    0.47630253817723
H         6.29585370824397    0.06965684402603    2.02828732022554
H         6.38493709435483   -1.21371977728342    0.80976344014659
H         3.72693042559734    1.06789639747611    2.02007020991226
H        -0.92899770593949    1.98827560450108    0.79163236165142
H         0.17603740049797    3.45038324843498   -0.58824423255378
H        -5.19815549564797    0.46342020525843    3.97829931738727
H        -3.52230886997508    0.75017014125294    4.44720118635698
H        -3.90710135561600   -0.54242886289379    3.28686719184637
H        -4.39395217323795    5.32372823793315    2.08818211297431
H        -4.49760825502761    5.08860557516381    0.33334710918219
H        -5.88340234258701    4.71215998363568    1.37276450440933
H        -3.27956624220358    2.75997843950296   -0.39870355773014
