54
 energy: -101.647151710376 gnorm: 0.000903035377 xtb: 6.3.3 (4ae9cef)
C         2.71737881700321   -1.71124512876114    0.84087553448024
C         3.76728699272761   -2.56849876000390    1.11492308629770
C         3.84815901407408   -3.79405649235200    0.47567598045377
C         2.87619302163001   -4.15914336230299   -0.43978063204477
C         1.82843444413094   -3.30025015749387   -0.71977769524166
C         1.74566902936395   -2.07029643036697   -0.08430282796797
C         0.59025171096875   -1.14974627041822   -0.37127720174075
C        -0.44175324931170   -1.13634891483221    0.77169811044426
C        -1.60521428845675   -2.04522212715942    0.48080884936140
C        -2.51338718628326   -1.72008033603460   -0.51902234718947
C        -3.56969739798730   -2.56624036884228   -0.80013299433283
C        -3.71862864160866   -3.74915110448751   -0.09575888166062
C        -2.80727652595834   -4.08290004614445    0.89071454856136
C        -1.75439905604566   -3.23310601111574    1.18012183933766
N        -0.83277114373317    0.26631694283411    0.85933369123681
C        -1.93574549608820    0.65918528934024    1.54147920201503
C        -2.22738044919079    2.12043170992167    1.45422556936460
C        -1.64534096246180    3.16363301205381    2.11363147451854
Br       -0.17555777200259    2.96079284918786    3.28031819387310
C        -2.23835190933339    4.41833252678639    1.84639736577226
C        -3.28102390791124    4.30323501323485    0.98866810530934
S        -3.56341320298612    2.67679253498457    0.50937155743948
O        -2.65094216107061   -0.10350715377425    2.14916239370235
C         0.11206460369726    1.14121768304479    0.21127043498211
C        -0.57395902407416    2.07671694733765   -0.81047232526152
O        -1.23671102160497    1.38303465074914   -1.72299168620965
O        -0.48103179296494    3.27337784305684   -0.79808509814293
N         1.01471402567055    0.24048409490234   -0.46546350700961
C         1.93873177867826    0.61092530412650   -1.39035167299466
C         2.26429005650943    2.06214235543722   -1.38765431029883
C         2.10549580061747    2.94788701783380   -2.41371423628849
Br        1.23399726414089    2.50012407830264   -4.02242483298650
C         2.56291217696171    4.25334812776076   -2.12443742191325
C         3.08645823239210    4.33238509064497   -0.87715891961052
S         3.01766103934052    2.83555917272790   -0.03678839882458
O         2.47167487116100   -0.17437896436191   -2.13993705053700
H         2.66040926413863   -0.75300157464780    1.33797106182697
H         4.52536039386661   -2.27723744610116    1.82639181760236
H         4.67008597606026   -4.46128649732218    0.68808242710326
H         2.93555759290732   -5.11346214313877   -0.94122834698741
H         1.07310086140279   -3.58176505557792   -1.43853225833953
H         0.10982957089838   -1.44651550595540   -1.31340935338322
H         0.03529788721704   -1.43374328322333    1.71566209210750
H        -2.39950637579098   -0.79708020265319   -1.07008817731357
H        -4.27882959875747   -2.30139418297668   -1.57040356451951
H        -4.54516861625232   -4.40847545392527   -0.31517815891703
H        -2.91950402118483   -5.00414532684950    1.44259179450569
H        -1.04819040511935   -3.48941187599504    1.95621685616839
H        -1.89125303552837    5.33988105909265    2.27535295407811
H        -3.90868222713565    5.08069374781434    0.60225262460806
H         0.65415065008726    1.77133626328443    0.93698255291993
H        -1.60794208668534    1.95686831213903   -2.41505123321656
H         2.49353846318125    5.07134424365464   -2.81719856929773
H         3.51295601670819    5.18564230659697   -0.38955941585433
