68
 energy: -121.181714873210 gnorm: 0.000341951632 xtb: 6.3.3 (4ae9cef)
C        -0.98995664966875   -2.93332685718019   -2.62025546571202
O        -1.25272028408266   -3.85473812316911   -1.65294140522743
C        -1.82470895792770   -5.08452801648476   -2.02887197045727
C        -1.08206581583770   -3.18055712427169   -3.98542073323360
C        -0.75924958240182   -2.19150857532029   -4.89818688954110
C        -0.33857981203211   -0.94802639591795   -4.46661107766967
C        -0.25490882238826   -0.69495986824526   -3.10897163025253
C        -0.58149332596819   -1.66723834130131   -2.17924760324499
C        -0.50550022782322   -1.37037427669590   -0.70288396530261
C         0.95146667326131   -1.27909944344297   -0.19232787862934
C         1.20722873137062   -2.15600965628882    1.01557361283440
C         1.12128120135168   -3.52573201016123    0.80258265548749
C         1.37633210147026   -4.43532901608609    1.81087080422536
C         1.74849308179327   -3.97146164112234    3.05821970550145
C         1.83926896752245   -2.61254577830964    3.29415922961397
C         1.55869950682777   -1.69042163094497    2.28880162214285
O         1.60004985352751   -0.33757546832407    2.48766264707912
C         1.97355212987265    0.15827510660645    3.75152461178842
N         1.15261390344125    0.14490903845684   -0.01114536523139
C         2.39530376515813    0.69174562063858   -0.05782834954261
C         2.43800133057739    2.18183985259038    0.07803639435072
C         1.95767595122489    3.00458190773743   -0.93502377925149
C         2.01836734637520    4.38002037166332   -0.80832005839391
C         2.56399148422153    4.93196479342575    0.34020482403765
Cl        2.62377204907257    6.64866527736790    0.51071166844669
C         3.07144667596134    4.12495110796612    1.34559486328293
C         3.01435044189895    2.75073818883491    1.20486616143387
O         3.38575475686191    0.01223172524126   -0.21901469078757
C        -0.09728078219101    0.82226736875871    0.19943767826007
C        -0.40466606750969    1.04208274564337    1.69955067005757
O        -1.17017948666256    0.08399331793079    2.20822516196206
O        -0.04578991248837    2.01176797563665    2.30870398577273
N        -1.05686677013233   -0.05089485971690   -0.42293411534076
C        -2.38361847711429    0.19790499741481   -0.55510339807593
C        -2.77388676509931    1.60620299653853   -0.21662975073546
C        -2.37890609227041    2.66142117237135   -1.03148037572927
C        -2.75168516680812    3.95758027717421   -0.72903434543159
C        -3.52406224950727    4.19681122493778    0.39747830771719
Cl       -3.97958218863330    5.81456921932788    0.78748483933626
C        -3.94167772819932    3.15318858252054    1.20797859785652
C        -3.57036191174224    1.85871302837076    0.89203910385515
O        -3.17241005906136   -0.63988185886918   -0.93319451028508
H        -2.76197007380236   -4.93985556153704   -2.57347927019035
H        -2.02696243310480   -5.60916529596012   -1.09627737568747
H        -1.13539370788431   -5.68096591731167   -2.63566766871730
H        -1.40545895146404   -4.14299692664209   -4.34846910057028
H        -0.83720090213616   -2.40162095208972   -5.95434193893001
H        -0.08198520542989   -0.18022302627880   -5.18001676254057
H         0.06615360340170    0.27579218085871   -2.75975669614151
H        -1.07509828815270   -2.12970039283380   -0.15830250090918
H         1.65199646649439   -1.60338746635610   -0.97314808521724
H         0.84279774548747   -3.87516529419698   -0.17985517035485
H         1.29898668527695   -5.49427398036901    1.62019696731218
H         1.97255419197640   -4.66337811450114    3.85611126332058
H         2.14075354079166   -2.27519783501405    4.27275096982097
H         1.33737769850933   -0.24035264081841    4.54894772053956
H         3.02097079929926   -0.06667629087056    3.97346634874381
H         1.83183007712113    1.23725677509714    3.68869787874789
H         1.55423483186346    2.57119156562327   -1.83945537018427
H         1.64811399437883    5.02161724500111   -1.59254528718425
H         3.50779744561782    4.56932987129737    2.22614782424841
H         3.41868184209092    2.10969970021149    1.97160768662639
H        -0.07844343555240    1.82492460931866   -0.24868901901169
H        -1.34873970359091    0.24879569646413    3.14821015306947
H        -1.79471926465053    2.46566319476855   -1.91901136438468
H        -2.44949039526624    4.77833592850877   -1.36021509908009
H        -4.55418359007865    3.35385588626504    2.07287859069875
H        -3.90009378746420    1.03428008608224    1.50593651897892
