86
 energy: -160.092695599964 gnorm: 0.000193906097 xtb: 6.3.3 (4ae9cef)
C         0.07197893229296   -4.04617711677049    1.16985411864821
C        -0.21365224945749   -4.72885513215472   -0.13901716861775
F        -1.24240425289881   -4.14237206719565   -0.80394237334297
F         0.81526747802543   -4.73119784849208   -0.99660327504067
F        -0.57713267108384   -6.01013023146797    0.00890784058947
C         0.03272615591358   -4.80320847691910    2.33534556562488
C         0.27052114997580   -4.20869267109343    3.55985379715762
C         0.53587933734201   -2.85143113005671    3.62453917471989
C         0.57505938853013   -2.09658233903613    2.46773200507254
C         0.36044703845433   -2.68207909800791    1.22386278635123
C         0.44288698981505   -1.81012226871758   -0.00780514163480
C        -0.75094729855356   -0.83009583218757   -0.08903143909364
C        -1.77557713378206   -1.16339088139112   -1.14969931193012
C        -1.61885668169457   -0.97315684301097   -2.52634184274294
C        -0.37787674864115   -0.38935601934250   -3.15250538041703
F        -0.35100869886416   -0.55901466567092   -4.48304409771846
F         0.77328304056630   -0.91465449215108   -2.70651876994232
F        -0.27504504416654    0.94203319046649   -2.96271615080508
C        -2.65986481331408   -1.28535963821714   -3.39633143074678
C        -3.85017519859716   -1.80078365178240   -2.92308073958923
C        -4.00840310764457   -2.01373859629988   -1.56607276103601
C        -2.98110991373011   -1.69558420891714   -0.70103173696854
N        -0.14002259596342    0.47698530959863   -0.24053458900423
C        -0.77917222764085    1.66061609220796   -0.03223901136423
C        -2.26716439752317    1.56199369119826   -0.10012907671831
C        -2.91694045359930    1.80232328382304   -1.30408435493895
C        -4.28437105730425    1.63742424019052   -1.39612735480883
C        -5.03056283117983    1.24856454652565   -0.28631860122495
C        -6.48057604944978    1.03581471236467   -0.40118117517319
C        -7.35261397200192    1.50230680692279    0.57892263607789
C        -8.71513565797729    1.29886386539778    0.46042893214719
C        -9.22553059806773    0.61954824520534   -0.63311397824890
C        -8.36590506080302    0.14803716001776   -1.61147533057774
C        -7.00412061268687    0.35758987181154   -1.49954299503379
C        -4.37654659994142    1.06413135313198    0.92927135317246
C        -3.00635222888571    1.21594040182397    1.02364730812190
O        -0.15369320679111    2.68333537092989    0.15292211647799
C         1.30636583115554    0.44641986622147   -0.16565088423310
C         1.76538097279202    1.34428750675616    1.00500188228131
O         2.60370193373497    2.28612218412027    0.61438722948877
O         1.42397271516296    1.15275850134638    2.14169232749977
N         1.61220674459886   -0.94290225179352    0.05447153869482
C         2.84059501266945   -1.46210356480743    0.33026195298336
C         3.93415479468137   -0.44766046432477    0.34032231569945
C         4.36673144347216    0.14481795902038   -0.84009934057214
C         5.36411397277814    1.09866239884097   -0.80929670134786
C         5.94131533249557    1.48604457120309    0.39837836772369
C         6.96735066224923    2.53856583076838    0.43338018385499
C         7.97252912773431    2.58734090367186   -0.52947294500416
C         8.93044055654564    3.58353957622295   -0.49601207097169
C         8.89607838802187    4.55066450921341    0.49463638211968
C         7.90004742931835    4.51285144198540    1.45593871383340
C         6.94539894458064    3.51351820296650    1.42812864887640
C         5.52279779347467    0.86260736001707    1.57196300981701
C         4.53648895713692   -0.10429941895470    1.54414991960350
O         2.99921279731578   -2.64022371415271    0.56407252419767
H        -0.17920378062288   -5.85949580801672    2.27813378195574
H         0.24950769342037   -4.80584952071914    4.45809759750996
H         0.71940325898249   -2.37830095528319    4.57711933519811
H         0.79602467437772   -1.04017719252814    2.52469980900278
H         0.51512736688132   -2.42586834053521   -0.90861573860464
H        -1.27747483745870   -0.85850476500027    0.87539229646379
H        -2.53172557591688   -1.12559619862113   -4.45555463071246
H        -4.64357868235488   -2.03767854732102   -3.61450237117430
H        -4.93005901557780   -2.41899418380284   -1.17865988541800
H        -3.11360690959148   -1.85985132888024    0.35731580413351
H        -2.34566881620033    2.11601978014933   -2.16374164930396
H        -4.78408212619395    1.82787757900341   -2.33406814426240
H        -6.95998347522687    2.04801469810105    1.42442059027296
H        -9.38216892162878    1.67375644874116    1.22277493498692
H       -10.28950675673117    0.45926319556160   -0.72346365852623
H        -8.75957085575706   -0.38438835705526   -2.46503924267475
H        -6.33247076146269   -0.02125826574549   -2.25650164370230
H        -4.94451379601292    0.77466672705096    1.80112183494270
H        -2.50675005434852    1.06831384135626    1.97053101741876
H         1.75146042924947    0.84529442623490   -1.08985039025717
H         2.82165462744421    2.88564410250964    1.34577604517780
H         3.92349257771384   -0.14901690052195   -1.78032001778267
H         5.68094531582822    1.57124753612999   -1.72679131349597
H         8.01365907275260    1.82608887231695   -1.29465215139041
H         9.70807704364071    3.60584829101676   -1.24547912244363
H         9.64246580576059    5.33071726369147    0.51762886107910
H         7.86629074863709    5.26657375696880    2.22918568398276
H         6.16248758493114    3.49766935327160    2.17269631869510
H         5.98716036887587    1.12637291440703    2.51087712183955
H         4.21643623802861   -0.58892775354588    2.45463432512461
