66
 energy: -136.935548494619 gnorm: 0.000287457034 xtb: 6.3.3 (4ae9cef)
C        -1.98337664094752   -2.18886181510403   -1.93254704898067
C        -2.15605624501251   -3.11671210883849   -0.76162923380949
F        -0.97679267513092   -3.39713708453835   -0.15459536224832
F        -2.95014226236391   -2.63472961021308    0.20642365684307
F        -2.67103809540410   -4.30233507584082   -1.10594991537771
C        -2.39433509313933   -2.62018822462261   -3.18746468479743
C        -2.22736175264454   -1.80897241148868   -4.29365225857915
C        -1.64071178324062   -0.56413782056672   -4.15067629986893
C        -1.23216378330400   -0.13515240320779   -2.90283495437810
C        -1.40185867899186   -0.93095498890128   -1.77605407077231
C        -0.93902567624509   -0.39435257839040   -0.44507810290037
C         0.60330038951206   -0.29330178093958   -0.34278489241696
C         1.15989130527610   -1.42610198356685    0.48527821722578
C         1.90479178074596   -2.47564557267562   -0.05602632964888
C         2.13660748154379   -2.59376158129155   -1.53733289286571
F         2.80909774832245   -1.54833231786335   -2.06918862811898
F         2.84113636539553   -3.67685554195964   -1.87293727255848
F         0.98592631492471   -2.66236020885103   -2.23584190185644
C         2.40317977844853   -3.47878617491723    0.76774228149136
C         2.14881560926327   -3.45714785265516    2.12553110679943
C         1.37232061119380   -2.44533390164191    2.66282270512352
C         0.88418307694977   -1.44117500435032    1.84900823812071
N         0.81823277094692    1.00589812833215    0.28031886300223
C         1.81788488361220    1.39998584565309    1.11061322612763
C         3.06382458793735    0.59293740620536    1.10250215441895
C         3.55935136015027    0.11585817372844    2.31133612900982
C         4.68714756966948   -0.68091645684832    2.33371310391221
C         5.33333461533076   -0.97122780178656    1.14435635832396
I         7.00963911748907   -2.25356449501443    1.16355048136552
C         4.89434346890458   -0.44361794693485   -0.05638858104595
C         3.75509638967830    0.34017068600477   -0.07515226244325
O         1.66599826923733    2.39146316467265    1.80408595520383
C        -0.38169925948674    1.81939533454818    0.31050188736747
C        -0.68772508063800    2.19785925869956    1.78063712577700
O        -0.89747790304731    3.49701962181487    1.92837176849294
O        -0.82977580481621    1.37440598686492    2.64360809940253
N        -1.39636997530463    0.97989893794790   -0.26798288640040
C        -2.73287728403340    1.24818840894795   -0.32429283355017
C        -3.11018797645736    2.64525976261789    0.04535258265451
C        -3.91847167783422    2.84417645830099    1.15779221329886
C        -4.29073535519320    4.12338202988010    1.52894186570501
C        -3.86672621301688    5.19804075700657    0.76828015223895
I        -4.41328098564608    7.15741373506754    1.34270528348791
C        -3.09227025563185    5.01340979695627   -0.36300467267970
C        -2.71329503946459    3.73301528250380   -0.72203855930809
O        -3.53761445353188    0.41074605645023   -0.66416919059627
H        -2.84581506129203   -3.59388256065647   -3.29451289041538
H        -2.55312323242405   -2.15091960563961   -5.26332062313301
H        -1.50155060319626    0.07349830240680   -5.01040956941693
H        -0.78065037137374    0.83993253049179   -2.79128959696150
H        -1.32721194720763   -0.99991449842198    0.38060557455292
H         1.03164283635682   -0.27925436797033   -1.35084487181294
H         2.98299338477396   -4.28136538847904    0.33969555824324
H         2.54189373158042   -4.23946400750597    2.75535122990420
H         1.14234178468717   -2.43630271588313    3.71687502937852
H         0.28533965721623   -0.65017332641788    2.27808518216254
H         3.04233548308834    0.35627406777930    3.22718572855903
H         5.05647436577059   -1.07255291727933    3.26852050317579
H         5.42098805902255   -0.64875857283991   -0.97504281746256
H         3.41090507715484    0.75439309398055   -1.00973561811622
H        -0.23459910619346    2.75185313966274   -0.25514189079990
H        -1.02459989760467    3.72008706595425    2.86476488571316
H        -4.24673308092061    1.99344000838339    1.73544998306090
H        -4.90858455535595    4.27654136403015    2.40044113871775
H        -2.78311796347729    5.85761715257703   -0.95952628534459
H        -2.12166410463512    3.58208514666764   -1.61300127018963
