84
 energy: -136.995952270118 gnorm: 0.000855860504 xtb: 6.3.3 (4ae9cef)
C        -0.59478774104503   -3.47318487387356    4.23953062097539
C        -0.94413936705312   -4.45909201290527    3.36231433191941
C        -0.70260664456174   -4.28850233905848    1.99217849808803
C        -0.12602767191509   -3.14145558500532    1.52325772273726
C         0.23259722347135   -2.09155449716318    2.39721323220267
C        -0.00619465613591   -2.27327173819668    3.78779649564007
C         0.33493285135131   -1.25000692975543    4.69582384005447
C         0.87211732358842   -0.07787883781094    4.24873613976381
C         1.08493133557360    0.11790976674279    2.87854429172248
C         0.79593270419050   -0.86129578152213    1.96266960787938
C         0.97567864149232   -0.58259116937507    0.49135608542433
C        -0.33643162106444   -0.01659364871888   -0.10065118626065
C        -1.15563368622577   -1.03630527854523   -0.84897858771916
C        -0.70977537106700   -1.45697194994601   -2.07772787857812
C        -1.45430351141812   -2.34611494770821   -2.86091014613487
C        -2.66106545043778   -2.79898775601190   -2.41141636810315
C        -3.14605789875536   -2.41602903409877   -1.14427586511185
C        -2.37600683398595   -1.54384361967376   -0.32645123883467
C        -2.87096403515773   -1.23923508836186    0.96015947176678
C        -4.07068492297939   -1.72975681585372    1.39269107034224
C        -4.84638391742297   -2.55301248631437    0.56597593209604
C        -4.38605457359600   -2.89481943087377   -0.67245548671851
N         0.10650002937933    1.07823720295562   -0.95482106601378
C        -0.70788821193857    2.05294256815260   -1.44917983356821
C        -2.15370062394484    1.66254141630497   -1.40212953710428
C        -2.69873453309096    1.01628708404256   -2.52936171108119
C        -3.98262169140735    0.55523918649734   -2.50470119272909
C        -4.78663644783225    0.71659454132479   -1.35714784159571
C        -6.09878441349564    0.20698241324035   -1.28345645086675
C        -6.85274743462924    0.37997083127138   -0.15714766996291
C        -6.33169365832605    1.07706899854846    0.94388410557209
C        -5.06368690011411    1.58448332831668    0.90304486004710
C        -4.25644500141890    1.41252572767263   -0.24009235729481
C        -2.92736041271240    1.88128752248011   -0.29388037108686
O        -0.27842720982503    3.08484393644362   -1.91388441820771
C         1.54160334934835    1.23235547666293   -0.91752481434859
C         2.17893104269977    0.67442569026247   -2.21000290919502
O         1.76933848037108    1.33494228768813   -3.28216699635781
O         2.94770873663103   -0.24679866755424   -2.23600470979269
N         1.95512198169387    0.46696257843621    0.22806653409391
C         3.27150989124968    0.22885712391259    0.54544473114822
C         4.21657518210066    1.30332312412333    0.12923805900102
C         5.36088461781363    0.96301255553290   -0.54503309128741
C         6.28615176454420    1.94869976878633   -0.94144643093789
C         7.46085854084137    1.62863235592916   -1.65401416591761
C         8.34235502918399    2.60684386242628   -2.02001218826812
C         8.09017920878262    3.94848008664287   -1.69185637444772
C         6.96081611843805    4.29071738138980   -1.00191321667081
C         6.03179592085162    3.30566975255464   -0.60880244186447
C         4.86192171226047    3.62267273307554    0.11446554424501
C         3.97351518890699    2.65002143556674    0.47170375803562
O         3.60907897750680   -0.74825024624704    1.17452278722095
H        -0.76622613795124   -3.59353115690730    5.29990983501733
H        -1.39932095509233   -5.37283419713539    3.71480430671959
H        -0.97407983231875   -5.07439772750209    1.30278245464761
H         0.04969788230566   -3.04632347498005    0.46380216415158
H         0.15727085169377   -1.41052358118637    5.74950568073597
H         1.13142970329851    0.70923808533078    4.94113348163678
H         1.49487863831819    1.05896923473334    2.54352721241459
H         1.28809417466267   -1.49283483241771   -0.03478852337190
H        -0.92771394002449    0.41397513152339    0.71362496318158
H         0.23071446568931   -1.08533698109781   -2.45807826945437
H        -1.07163012204157   -2.65435143700922   -3.82240991416934
H        -3.25881433085648   -3.46654126941537   -3.01507148456686
H        -2.29283499310294   -0.62594574892809    1.63315388366682
H        -4.42754104131702   -1.48254927748094    2.38120155846392
H        -5.79814914095489   -2.92005101452730    0.91980965401364
H        -4.96310950456488   -3.54571387892644   -1.31374525837105
H        -2.08016591112481    0.88644868973272   -3.40464808211727
H        -4.39771583003381    0.04796315321185   -3.36341902618514
H        -6.49609512118228   -0.32411866776186   -2.13649811778938
H        -7.85713537893810   -0.01416080110388   -0.10686134739283
H        -6.94294422759990    1.20714970010777    1.82498673468340
H        -4.65720849981497    2.11828068327337    1.75026987586326
H        -2.52516245295374    2.40619593803866    0.56197121145127
H         1.79788613555757    2.30004038285992   -0.85986942182609
H         2.18151636648615    0.99154543078530   -4.09256481548349
H         5.54508864805695   -0.07253285148807   -0.78868816805443
H         7.64867006956197    0.59417399084497   -1.90237264284316
H         9.24099501632436    2.35580827625540   -2.56428417721183
H         8.79828090546929    4.70802994171497   -1.98934344810228
H         6.76298059253978    5.32207389082677   -0.74649565208424
H         4.68181947078151    4.65363106935350    0.38397985160274
H         3.09133308837408    2.90124029685359    1.04349830678134
