66
 energy: -113.677062273328 gnorm: 0.000633417961 xtb: 6.3.3 (4ae9cef)
C         1.79454514799220   -0.80462877900613    2.00234750620661
C         2.60952127615396   -1.71949627859857    2.60335936547702
C         3.23271059296019   -2.73774955441881    1.85174915105247
C         4.07697651396121   -3.70046880356428    2.44212795308637
C         4.66185592562206   -4.67524237834649    1.68312006954592
C         4.42803411197674   -4.73276934678261    0.30006446922160
C         3.61507186135016   -3.81376299630301   -0.30173992766594
C         2.99912389804839   -2.79359017215082    0.45292031298701
C         2.16174393947024   -1.82785902347613   -0.13993189802198
C         1.57196002693625   -0.84841652844387    0.61266157483292
C         0.63334502931665    0.13755551919101   -0.02391297896817
C        -0.84042914744631   -0.23646131498094    0.24158193673523
C        -1.45520291734129   -0.90712354097015   -0.95825995222126
C        -1.34756424461491   -2.26641675911764   -1.09317367498244
C        -1.85494951879974   -2.92776246852273   -2.22820758369486
C        -1.74999916755026   -4.32536814761711   -2.38931324966721
C        -2.25836988268466   -4.93906561592067   -3.49921753238213
C        -2.89403814331203   -4.18542392490877   -4.49897592935419
C        -3.00915280773236   -2.82958939632890   -4.37327613880598
C        -2.49457490061153   -2.16571158484683   -3.24045141869866
C        -2.59335259866093   -0.76913445282161   -3.07551378997041
C        -2.08093363720222   -0.15535446920338   -1.96862071182159
N        -1.46332125126418    1.02646550507189    0.61137076155118
C        -2.75138970061904    1.04160478233228    1.05076946170904
C        -3.26922426780393    2.34511034581557    1.52612828056186
C        -2.84001122062847    3.12801504259307    2.55909203855334
C        -3.66298146939139    4.25427022625179    2.76993525324581
C        -4.70314239956542    4.30583839461034    1.89845566453122
S        -4.71348336654187    2.97292586216891    0.81712984462891
O        -3.42981201229774    0.03620533140048    1.04350022046337
C        -0.52801666027392    2.11720377099214    0.54067007514064
C        -0.70523614371906    2.97005617333284   -0.74021197598575
O        -1.96068152232996    3.37883389907235   -0.88792845991645
O         0.18900104816176    3.25161326840036   -1.48480219473186
N         0.76048865485472    1.47807403096446    0.54169688301843
C         1.97030686583709    2.10821162992635    0.39660808435665
C         2.10750643759230    3.49843783111039    0.85970418191642
C         3.10458548402725    4.32671201146105    0.42388909154311
C         3.09923798132553    5.58935885054339    1.04761221639742
C         2.11228256805710    5.70784620092782    1.97190882276430
S         1.15817958551118    4.28453215767080    2.08292210900902
O         2.93253695977084    1.51590692532030   -0.04765873273908
H         1.31962590028069   -0.02807489599161    2.58482769244608
H         2.78754164507237   -1.67746647285167    3.66855402208197
H         4.25403158418153   -3.65266998106306    3.50730835688618
H         5.30897906726967   -5.40882562895006    2.14147581748403
H         4.89841461344004   -5.51042411382259   -0.28392400782156
H         3.43266824195818   -3.85209203534193   -1.36615582452286
H         1.99294258985769   -1.86886306259841   -1.20660938082966
H         0.82651549044102    0.17790732643569   -1.10555380789569
H        -0.91366386300912   -0.91647161128687    1.10063909660027
H        -0.86544636624565   -2.85022007379717   -0.32162934492539
H        -1.26033013349190   -4.89987734708894   -1.61612554804671
H        -2.17632560623796   -6.00968285559960   -3.61631237569802
H        -3.29138915776205   -4.68833532121814   -5.36845343470358
H        -3.49734032933248   -2.24540774278242   -5.14035488392678
H        -3.08325282047625   -0.18871226919406   -3.84418424362126
H        -2.16999901542989    0.91468724951551   -1.85464977307978
H        -1.98747689170022    2.89805107783478    3.17461978843445
H        -3.48353154736109    4.98635875138563    3.53635306054765
H        -5.47194517982679    5.04899764209338    1.82685863687521
H        -0.65682084313829    2.79764586274758    1.39052681817549
H        -2.06274697801640    3.92707917175685   -1.68437971764208
H         3.80643304750327    4.01987715697501   -0.32884986922795
H         3.80179008192828    6.37106798714607    0.82287401441981
H         1.87818054155915    6.54206696287526    2.60301972908499
