108
 energy: -149.283846185238 gnorm: 0.000295757897 xtb: 6.3.3 (4ae9cef)
O        -3.32205035706860   -2.82369170067189   -0.63605402777128
C        -2.42627145563487   -2.06467841744871   -0.34015478582161
C        -2.60548850345186   -0.63522854283448    0.06263735662912
C        -2.23828588322111    0.35246963728795   -0.84495273129283
C        -2.34033178130230    1.68951961972875   -0.50087211127607
C        -1.97769923306457    2.81166901019887   -1.46136007529270
C        -3.20655067653876    3.70836275227176   -1.66843273964717
C        -0.82627661341085    3.63243048451627   -0.86472305869214
C        -1.53632318865629    2.28711629189560   -2.83029518886404
C        -2.78697124624475    2.00229981405792    0.78221626718061
C        -3.16645038933953    1.03537292244410    1.70038338161064
C        -3.66584895184284    1.37553995483772    3.09552062458808
C        -3.50553648269636    2.86024429914960    3.43463326682734
C        -2.87234309800715    0.56264579557123    4.12882236759438
C        -5.15535736446332    1.01396236501003    3.17902768677572
C        -3.08795814910311   -0.29989935624060    1.31260608662416
N        -1.11225122909055   -2.42535513083162   -0.38729886710956
C        -0.03201177926389   -1.71236574088332    0.25429264477689
C        -0.12150404069669   -1.96157496997871    1.77633433875495
O        -0.21287128514283   -3.24979506869805    2.07798684313872
O        -0.15427131588094   -1.08527745725913    2.59764530503416
N         1.14634939868810   -2.27532202984113   -0.34255258010271
C         2.14719154250269   -1.56956180624982   -0.96381849380389
C         2.29660473404198   -0.14090261670945   -0.58315699672735
C         2.62624662706581    0.76046418904205   -1.58583301537298
C         2.81249963167089    2.10753688953461   -1.29917386712010
C         3.22837390742232    3.05904567096706   -2.41111279645453
C         4.60665062161469    2.61486045529589   -2.92205804577603
C         3.33402246535585    4.51254709260615   -1.94079451251130
C         2.21036174455543    3.00552757260400   -3.55717508563801
C         2.65223962635845    2.51662436267205    0.01815543077944
C         2.37094833386035    1.62707864295431    1.05336027989428
C         2.21714417035934    2.14694538472391    2.47491101920533
C         3.34949536113753    3.12616847509930    2.81594704766347
C         2.24302734933671    1.02125003947469    3.51270421587908
C         0.86149030006527    2.86230758973257    2.56446604809913
C         2.19976158255269    0.28846209093823    0.73667805815553
O         2.87951647244573   -2.11051813392424   -1.76801470680542
C         0.87701625562378   -3.64268841637519   -0.76735793507657
C         1.52200370838294   -4.67936905366994    0.12027498401920
C         1.21846939675469   -6.02052345857942   -0.08228678148314
C         1.80044176042904   -6.99744017567364    0.70411329056565
C         2.69843056745581   -6.64634019181675    1.69833394894312
C         3.01675695046291   -5.31428583792309    1.89340434090873
C         2.43347738300391   -4.33551221584591    1.10730025126483
C        -0.66944071347610   -3.74953143045418   -0.80643583191322
C        -1.19742903397779   -4.06858630068831   -2.18007202896709
C        -1.88104774602445   -5.24989798860166   -2.42306021512124
C        -2.35350572568185   -5.53442694624214   -3.69207438640555
C        -2.15030336081483   -4.63779213632087   -4.72629440777902
C        -1.47202580374979   -3.45414821888234   -4.48846827388454
C        -0.99551330279876   -3.17198149546581   -3.22212125978383
H        -1.88441140860922    0.04431230853657   -1.81541418015278
H        -3.52363433250256    4.17039757387146   -0.73779722942954
H        -2.97735607848132    4.49931168635378   -2.37958765395941
H        -4.03610305764928    3.12282006391471   -2.05875310085401
H        -1.10957634586941    4.07488372479735    0.08631101924594
H        -0.55146827060327    4.43759203185607   -1.54382427970072
H         0.04433624396297    2.99920095600268   -0.70271464056436
H        -0.63969715079587    1.67701983674407   -2.74489095504232
H        -2.32528893179001    1.70165769859612   -3.29653579441077
H        -1.31247213686957    3.12639536379258   -3.48615401275623
H        -2.84146092551663    3.04027067321178    1.06243010561657
H        -3.84012457041811    3.03603213183970    4.45493844164955
H        -2.46364296290405    3.16419055501649    3.36289502868733
H        -4.10843361268448    3.48355115764888    2.77828391263027
H        -1.80366938858284    0.67659857306974    3.96250603939609
H        -3.10869324784049    0.90342462495845    5.13453240099974
H        -3.11226097958302   -0.49503010878712    4.06990266511100
H        -5.53622350578055    1.21738456028991    4.17767855198680
H        -5.31526374410345   -0.03768186087979    2.95633582480313
H        -5.72683571607970    1.60202926873396    2.46374318926861
H        -3.38796984271070   -1.09096338003105    1.98187751215261
H        -0.09094854280369   -0.62911423143294    0.09582423082767
H        -0.28989862322233   -3.38343373878644    3.03714087861718
H         2.73939165663092    0.37842105007025   -2.58857593787516
H         4.94756430247468    3.28243964253122   -3.71060416162625
H         5.33330697975632    2.63662819380516   -2.11251318434585
H         4.57139102465182    1.60424898738828   -3.31885962395964
H         2.38246148832268    4.86959749559363   -1.55277203478840
H         3.61174080669791    5.14417059824940   -2.78212453436315
H         4.09811713965202    4.62377300240302   -1.17497850917111
H         1.23586462843404    3.33713631410897   -3.20864477098348
H         2.11025950438234    2.00046504392267   -3.95632937516899
H         2.52784129726353    3.65957844820025   -4.36660210707522
H         2.76604294038767    3.55908942377478    0.25868351244469
H         3.28852180624688    4.03974019318747    2.23154329913079
H         4.31660115210871    2.66259037633046    2.63311923134663
H         3.29434856205301    3.40278593619627    3.86656074192239
H         2.20598437064091    1.44917268160544    4.51248168330323
H         3.15788208412550    0.43820025939251    3.42777825918523
H         1.38462378843466    0.36511919518893    3.40223496613138
H         0.81906558185801    3.69996396576879    1.87234663489705
H         0.70261869658329    3.23804904203805    3.57310640498856
H         0.05790079073968    2.17010465427766    2.31917996321183
H         2.01425993051974   -0.43712796429948    1.50847989289416
H         1.29739340250054   -3.75685681718652   -1.77661690789298
H         0.53070942151983   -6.29736934343677   -0.86798072397484
H         1.55690702137548   -8.03635162434554    0.53747989634780
H         3.15455645838094   -7.40902974694360    2.31180398305418
H         3.72622193876253   -5.03355356990642    2.65818655191454
H         2.69861202539320   -3.29940121546193    1.25776024426379
H        -1.01965675508878   -4.50169848406188   -0.08839754280928
H        -2.05549149376964   -5.94343979267231   -1.61336360999014
H        -2.88745204622461   -6.45579278552970   -3.87182943983496
H        -2.52347706253935   -4.85789924523785   -5.71551028115416
H        -1.31477987229499   -2.74933250976073   -5.29175683931743
H        -0.46483361941634   -2.24803043882034   -3.03775891302576
