62
 energy: -99.691764363333 gnorm: 0.000672889923 xtb: 6.3.3 (4ae9cef)
C        -5.79361005998733   -2.56205606930934   -0.26871009772466
C        -5.58856744419193   -2.60404904488646   -1.61899821184370
C        -4.72466858100521   -1.68335266164496   -2.23300168272275
C        -4.07727717554046   -0.73770419352976   -1.48826338358079
C        -4.26511710926143   -0.67215623367571   -0.09103845793118
C        -5.14011991730465   -1.60116096607165    0.53133692115782
C        -5.32932517791613   -1.54118549679265    1.92724063787949
C        -4.67920192840091   -0.60534224868441    2.68083655338453
C        -3.80256745471186    0.30504171795091    2.07418295123349
C        -3.59134698191347    0.27383031744042    0.71922741425455
C        -2.67988157202878    1.27956873798657    0.08554859269158
N        -1.35876307333080    1.05258584009186    0.31369630617948
C        -0.80794238582690   -0.18625005632378    0.82585433238995
C        -1.05898266858511   -1.36523512664841   -0.14073794884715
O        -1.83536298882730   -2.29498970130557    0.40016135104592
O        -0.71167405762445   -1.34539584488363   -1.29187727647310
N         0.62962181626963    0.04893965031620    0.90124892722451
C         1.41129697399691   -1.04825725655354    0.86049305466943
C         2.88608663203386   -0.86071201301808    0.92934706508816
C         3.48405400707899   -0.57301539799597    2.12992264929201
C         4.87981690293664   -0.46739125711072    2.21921868386617
C         5.65757181869360   -0.65012359379227    1.11029975596446
C         5.07618514596983   -0.95233852920069   -0.13899850887267
C         3.66457569208976   -1.06849307231240   -0.23625035545230
C         3.08153584290756   -1.36505870437674   -1.48701367683547
C         3.86837026056661   -1.54859446848668   -2.58975333037254
C         5.26482348474735   -1.43774725659486   -2.49594235517751
C         5.85561667412658   -1.14547273738746   -1.29902897025974
O         0.89293727795577   -2.15527004380165    0.82041419565007
C         0.88559697275851    1.46206793846178    0.68478860909130
C        -0.26606922729731    1.82830112017976   -0.25728285535416
C        -0.41335830160411    3.33664810596876   -0.33928053210311
C         0.89766257805248    3.88262388537457   -0.90817302665221
C         2.10484015940648    3.45337900826204   -0.07377310737066
C         2.19810132456414    1.93066715655111    0.08221638544188
O        -3.08732338384901    2.24013571198172   -0.53351437725217
H        -6.46016029135486   -3.26578702927610    0.20942351975217
H        -6.09166638969456   -3.34377796082987   -2.22459635373066
H        -4.57522103527328   -1.72769707087755   -3.30152339061303
H        -3.41727368135565   -0.02652483630515   -1.96155396056750
H        -6.00020651265644   -2.25047524131002    2.39039255419070
H        -4.83047812063185   -0.55978967508858    3.74914928442571
H        -3.29555376490364    1.04238387328162    2.68092561188202
H        -1.22224943057032   -0.44721752408973    1.80899084174139
H        -1.96059824697054   -3.03303252799448   -0.21688226273829
H         2.87858204945461   -0.43243834739394    3.01353347743578
H         5.33112181375686   -0.24238974826610    3.17408324408936
H         6.73318873748461   -0.56968309455647    1.17517887600803
H         2.00748529858341   -1.45555264200104   -1.55876966729161
H         3.41836756977818   -1.78078877185533   -3.54344011672803
H         5.86837488486380   -1.58662520963547   -3.37937534517199
H         6.93001449545989   -1.05834734816154   -1.22097602714610
H         0.73491114432886    1.97438779762055    1.64786995009242
H        -0.04820741759613    1.43246102523458   -1.26070248041504
H        -0.60055004066723    3.74559333172195    0.65523491562143
H        -1.25251853946385    3.60445401489481   -0.97847669887949
H         0.85290838750472    4.97178544247838   -0.94553076512149
H         1.01975858417096    3.51894875196188   -1.93039242278499
H         3.01979828248777    3.82037761088736   -0.54098457144718
H         2.03454255206080    3.90543544363819    0.91828262322297
H         3.04318089984371    1.68399906119811    0.72426097985140
H         2.35491369642513    1.45785845857387   -0.88851604735113
