66
 energy: -115.346179460481 gnorm: 0.000874213646 xtb: 6.3.3 (4ae9cef)
C         0.94990823630390   -1.33427061020057    2.55261100193411
C         1.16468191050739   -1.88661319463837    3.80167248925776
C         1.09644656808505   -3.25891609334714    3.97433656250348
C         0.81553786232223   -4.07561697583931    2.89289175563862
C         0.60381923792183   -3.52404381316542    1.64161617056145
C         0.67064363533779   -2.15076362166981    1.46349070951937
C         0.42387719979608   -1.53193890780364    0.11068556472484
C        -0.87798250333430   -0.68635579848910    0.09098238346305
C        -1.87373831664805   -1.20632600516662   -0.92195574524813
C        -2.26711956311743   -0.47325487459722   -2.03080443409824
C        -3.18944222219822   -0.99992591834902   -2.92009291197935
C        -3.72510555970208   -2.25775194449907   -2.70976705861788
C        -3.33927132722001   -2.99105189156997   -1.59943317822386
C        -2.42086454415661   -2.46699647882986   -0.70938651522116
N        -0.41579046431485    0.66408996013573   -0.15039359601542
C        -0.94951331608469    1.83904309896101    0.28749873354609
C        -2.34443556263324    1.83282717172605    0.74768087056914
C        -3.03141015332018    2.90715693651033    1.23884325431429
C        -4.35715218159138    2.45579006959944    1.48623699800482
C        -5.52815997420164    3.03818970943438    1.97250373236079
C        -6.65514213642611    2.25290139120621    2.05863058317742
C        -6.64118491348181    0.90915674293030    1.67321350485631
C        -5.49735470022964    0.30698871801640    1.19126571192950
C        -4.36102047535872    1.09711526421674    1.10503221799265
O        -3.13982955738754    0.72680087970236    0.66726256599574
O        -0.30215619679705    2.87109972074804    0.27099446779596
C         0.92801458391349    0.66014757642041   -0.67369739211792
C         0.90643720041277    0.79209242380613   -2.21048567359786
O         1.77622303480044   -0.02241022595661   -2.80256210021420
O         0.18794785950138    1.54229119381798   -2.80587354031967
N         1.48074420475593   -0.58460845595809   -0.22337219752992
C         2.76061983312472   -1.03522403199463   -0.31436207624427
C         3.81776849712911   -0.07891712735619   -0.67501060074508
C         5.13788806816347   -0.38383405031669   -0.84662950645549
C         5.78947865217810    0.83015475171627   -1.20056698413226
C         4.77055422174966    1.80571350471464   -1.21160057549360
C         5.01968808518497    3.13467359295511   -1.51817349602464
C         6.32355591542459    3.47143965932263   -1.81968665941344
C         7.34618122686783    2.51847841000763   -1.81481761461039
C         7.09921633252212    1.19940442996925   -1.50823457307658
O         3.58078221258806    1.24822198494094   -0.89247921648357
O         3.03445050808150   -2.19944209348612   -0.08144088394766
H         1.00868738676514   -0.26289714465583    2.41862880716342
H         1.38843836625064   -1.24511079187365    4.64132896365056
H         1.26763148285826   -3.69026363073453    4.94945960284357
H         0.76804417761826   -5.14672058131490    3.02208553260661
H         0.40088971627254   -4.16327985862616    0.79515840761038
H         0.38808588153028   -2.32239779281105   -0.65030785233806
H        -1.34540216233773   -0.73293674757196    1.08198083226349
H        -1.86520155705750    0.51330816042463   -2.20256436242507
H        -3.49036328250512   -0.41918620736570   -3.77925586341978
H        -4.44457978252769   -2.66477508889938   -3.40462411309393
H        -3.75817379626078   -3.97115483423580   -1.42472248996396
H        -2.12537743065324   -3.03272644032988    0.16292228435426
H        -2.62818329583397    3.88664285723049    1.39152399963162
H        -5.54125161576033    4.07546036600619    2.26818920110798
H        -7.57528295011712    2.67838048849837    2.43005690735719
H        -7.54925223030715    0.33121772229818    1.75417016989168
H        -5.47544945249633   -0.72692604861320    0.88622201685530
H         1.45672060554630    1.54455556333010   -0.28478992280257
H         1.75576603023439    0.09513483062848   -3.76646112299975
H         5.57027969632295   -1.35579979730068   -0.72987205065190
H         4.22409500541071    3.86236722265449   -1.51904741931062
H         6.56139075637220    4.49507073964361   -2.06597921984990
H         8.35078775744386    2.83111954047473   -2.05757686318743
H         7.88990927476486    0.46539839552156   -1.50315319362711
