78
 energy: -149.505545920883 gnorm: 0.000250072297 xtb: 6.3.3 (4ae9cef)
C        -3.72246256047050   -3.24322453634880   -1.86918656319136
C        -4.20724186099559   -3.49518624496807   -0.61811678390217
C        -3.60452480095424   -2.89262306710526    0.49444618257533
C        -2.55468824000040   -2.03117800644959    0.33948750157950
C        -2.04535440109749   -1.72099038184135   -0.94129495096536
C        -2.63209579546653   -2.36948595032504   -2.06391018331398
C        -2.11326501717658   -2.14117631004114   -3.35533505736131
C        -1.04124657936087   -1.31616977884938   -3.54021548778615
C        -0.47853798837804   -0.64634650126304   -2.44659214218743
C        -0.97595613059797   -0.81344610592450   -1.17709837378634
C        -0.39033673223848    0.02164687823669   -0.06464471914241
C         1.08385002673962   -0.29028382341930    0.26367969378705
C         1.21352277636468   -0.68476000950453    1.71862241252998
C         1.52862033751419    0.25397203897418    2.66567683598792
C         1.61642698192843   -0.08212404814413    4.02284965105515
C         1.36993915856230   -1.36153760944796    4.42767231391558
C         1.01596711895315   -2.35418505038751    3.49082540196946
C         0.93038405833891   -2.02074615157077    2.11121109230974
C         0.54971497532563   -3.03535022093477    1.20515313944814
C         0.27354060458215   -4.30229842856112    1.63849695074995
C         0.36781037968571   -4.62926045390760    2.99841000712905
C         0.73360630375155   -3.67359310366310    3.90264702103293
N         1.80649147216609    0.93102459974087   -0.05984728469241
C         3.16786114150904    0.87879060927977   -0.06418871461262
C         3.87108728066869    2.11408813295420   -0.53291049396498
C         4.70200369854445    2.06431040240832   -1.65139463060747
C         4.91171002894331    0.78725107565378   -2.42504006604436
F         5.20393523836022    1.03167721760743   -3.71545759735423
F         5.96426262954475    0.09484594508991   -1.94571771275586
F         3.87590582992786   -0.05284384243327   -2.43418148600081
C         5.38661027124581    3.19901277197858   -2.06402070241374
C         5.25444271378945    4.38321371217256   -1.36077526524705
C         4.44900283188258    4.43361363767913   -0.23652411132452
C         3.76153330974687    3.30493805057434    0.17340681143921
O         3.76214659607614   -0.10327693003465    0.31768508130974
C         0.95381637372275    2.00026562877057   -0.49255847852380
C         1.26720760259730    2.50685967644862   -1.94034325125868
O         0.63781865010066    3.60971312900338   -2.27494324325193
O         2.03294905976666    1.93455117975181   -2.66002882610470
N        -0.38392661489593    1.43614308902127   -0.41979433439154
C        -1.47549247203512    2.21081825112464   -0.48230155971690
C        -2.78237012923842    1.49881740046143   -0.32184945592408
C        -3.45315968906112    1.11048411358437   -1.47607187870196
C        -4.67126157715385    0.46176524712943   -1.39438430815576
C        -5.24212796271766    0.20441560351272   -0.15898185832976
C        -4.59552935002054    0.60272457449633    0.99547153473909
C        -3.36721017491393    1.24949814313755    0.91541649692428
C        -2.70744521055338    1.62534775594062    2.21370649519540
F        -2.39784401438436    0.52580794703802    2.93629310803369
F        -1.55984248733710    2.30490205310337    2.08265547132882
F        -3.50579951214647    2.36675413377534    2.99300072207531
O        -1.42288708955779    3.41275300503110   -0.72228720162383
H        -4.15998094045289   -3.71868665567181   -2.73517752335469
H        -5.04031333749755   -4.16709176726682   -0.47600524843703
H        -3.96941862911764   -3.11798238829337    1.48518948070022
H        -2.10280255018371   -1.61431327353044    1.22577198340353
H        -2.57307020984299   -2.64446086365888   -4.19330190633144
H        -0.62512138340870   -1.15931482519637   -4.52317974924517
H         0.35957542623321    0.01285823070520   -2.61738188820818
H        -0.98028846862608   -0.09838111079824    0.84698719237694
H         1.48606039926474   -1.08664722400486   -0.37171786163885
H         1.72273964698923    1.27475835838118    2.37114786339817
H         1.87865717565747    0.68177998211084    4.73928930975157
H         1.43507477599986   -1.63273858944108    5.47131808569174
H         0.46785362643054   -2.81739237116180    0.15201290547466
H        -0.01902782192155   -5.06123393916511    0.92788473553212
H         0.15173546889686   -5.63698428501282    3.32108766973703
H         0.81085573999531   -3.91154776676338    4.95392938042199
H         6.01703193779968    3.15175168316945   -2.93836826789677
H         5.78608265848699    5.26292562052505   -1.68824495931954
H         4.35489918616205    5.35162546625168    0.32352944870691
H         3.15252907058231    3.34119355251998    1.06491759559346
H         1.00586871802081    2.87700881912010    0.17979168228869
H        -0.11604151657809    3.82713426812913   -1.65269433470653
H        -3.00673065039819    1.31569347900100   -2.43683176303794
H        -5.17441103153041    0.15645276343859   -2.29832363074885
H        -6.19117107816659   -0.30323240944109   -0.09330097312737
H        -5.03214627236362    0.41690279749676    1.96485057046459
