80
 energy: -128.389997781186 gnorm: 0.000531074752 xtb: 6.3.3 (4ae9cef)
C        -2.73814025780298   -5.12668055038042    0.05163184816690
C        -3.65602807837886   -5.51184838622446   -0.90932050374818
C        -3.77853234822652   -4.78930418954811   -2.08303812650614
C        -2.97679990453297   -3.68047907951392   -2.29424060160826
C        -2.05811936305079   -3.29733161076093   -1.33524488066400
C        -1.93442301003215   -4.01525971153630   -0.15217226382817
C        -0.91253288228280   -3.60953250212067    0.88256760462957
C         0.52049852334380   -3.79581744185619    0.33511408365145
C         1.54576043575954   -4.34931866045500    1.29935008009696
C         1.40143826878343   -4.31349493655437    2.67993153895865
C         2.41594695891023   -4.78121151414698    3.49994385775903
C         3.58345512464217   -5.28260111219044    2.95312810914165
C         3.73623001664045   -5.31559816176766    1.57671548140107
C         2.72476172126407   -4.85211217234529    0.75668893927070
N         0.89703883699987   -2.43697301935656   -0.04705508879476
C         1.58308047215040   -2.11992100907940   -1.17537091396894
C         1.74864021720892   -0.64499572451474   -1.37219007471458
C         2.99634381394472   -0.06693927369749   -1.18234425100367
C         3.15212783545016    1.30164594948415   -1.29618447374992
C         2.06472966749645    2.11992764573576   -1.59146321085980
C         2.21597139733822    3.58097023476187   -1.66269124583200
C         3.29361080036900    4.15699919445291   -2.33016044421381
C         3.42169515976188    5.53200706399600   -2.39641449176335
C         2.48176635327931    6.34963188803389   -1.79072158501144
C         1.41125982565955    5.78568757647406   -1.11713145205935
C         1.27758912093682    4.41128482056900   -1.05539332940302
C         0.82219461142833    1.52951966496422   -1.81153869311370
C         0.66579586872195    0.16111711556432   -1.71214369214900
O         2.02730075914630   -2.96483845571238   -1.92124376030335
C         0.27399422259204   -1.54219841428324    0.88400113512824
C         1.13534689380109   -1.36443334368144    2.15167907420822
O         2.42934479259276   -1.32888365912602    1.84775602659663
O         0.69995688154013   -1.21208950928202    3.25712550862473
N        -0.98762527601709   -2.17399566309548    1.17160581167395
C        -2.19796803964776   -1.55221661399596    1.28836862482766
C        -2.18635556307248   -0.07603504624354    1.05526884107602
C        -1.47212706113245    0.83195731894924    1.82803720467036
C        -1.49527683949503    2.17775370467492    1.51229711975755
C        -2.22833566106515    2.64718644160405    0.42365664558996
C        -2.24194002450335    4.07800401343151    0.08284936703013
C        -2.28910638811783    5.04623843614205    1.08358662655332
C        -2.30023452902151    6.39080058822390    0.76227280739824
C        -2.25731429757972    6.79147709693969   -0.56289741051962
C        -2.20793457109147    5.83822133968854   -1.56642582114950
C        -2.20476440169317    4.49359589100386   -1.24721771773971
C        -2.95691923287831    1.73122970450128   -0.33333929442663
C        -2.94327025782971    0.38780517108194   -0.01709160033836
O        -3.21680870746399   -2.17844736227348    1.48257580542950
H        -2.65114556315478   -5.68720343048737    0.97066244408182
H        -4.28116417901483   -6.37549265684262   -0.73791348093964
H        -4.49843820853375   -5.08657788115888   -2.83102252918059
H        -3.06668702983430   -3.11263573458342   -3.20884543394209
H        -1.43371645648141   -2.43160166520197   -1.50777206531232
H        -1.08215661828869   -4.18930355035198    1.79389328160974
H         0.51941265143878   -4.40755936195965   -0.57323400013740
H         0.50659974401511   -3.91928847988723    3.13704308728221
H         2.28906534116250   -4.74900161902195    4.57202459938448
H         4.37104031175519   -5.64595792998761    3.59655332026382
H         4.64494859632469   -5.70372865050408    1.14138115729854
H         2.84520532688142   -4.86475223564354   -0.31624589884525
H         3.83672311651500   -0.69615342723188   -0.93194881103329
H         4.12150885661287    1.74674535344702   -1.12697686767534
H         4.01951641806575    3.52195648008197   -2.81699734379983
H         4.25718685949790    5.96831308774754   -2.92419694744328
H         2.58452880906897    7.42335496316848   -1.84309944764524
H         0.67517307648759    6.41480665366928   -0.63867185363421
H         0.44958732614723    3.97532714178717   -0.51651694648638
H        -0.02327431340490    2.14877547626762   -2.07098175025527
H        -0.30289271944817   -0.28069752978005   -1.90342964888916
H         0.14159099872162   -0.53503819350470    0.46623937449221
H         2.97037199354970   -1.20707848820312    2.64518797351551
H        -0.91089510890287    0.48490090678502    2.68237433861954
H        -0.92077287141603    2.87207004174447    2.10814439340985
H        -2.34312113550076    4.74077458942952    2.11812409322365
H        -2.34601223583247    7.12961432583961    1.54915926709600
H        -2.26226861098786    7.84222251336160   -0.81271591355539
H        -2.16652867290903    6.14381668299969   -2.60151579524511
H        -2.15186611624712    3.75813011887272   -2.03704849120074
H        -3.55759484111704    2.07981983440345   -1.16051649118494
H        -3.51925063000088   -0.31905907175542   -0.59662482795940
