78
 energy: -149.513216250331 gnorm: 0.000323990568 xtb: 6.3.3 (4ae9cef)
C        -2.59338859713256   -1.97686923542953   -0.12682099980286
C        -2.40882308547515   -3.08956172577248    0.86937831684248
F        -3.44168127590739   -3.93794276983728    0.89816138593826
F        -2.25183001295113   -2.67179521828620    2.14193684745576
F        -1.31817804917578   -3.83473300813785    0.60444967666138
C        -3.73035029967333   -1.99282736730230   -0.92598228068195
C        -3.89779467993792   -1.05354436821732   -1.92526404507816
C        -2.91415645344394   -0.10732005793623   -2.14924462666582
C        -1.79203491926108   -0.08033742097377   -1.34544332626484
C        -1.62069281960853   -0.99228058715421   -0.30918012542753
C        -0.36026557049318   -0.90413891247146    0.51432872944307
C         0.87845729461966   -1.26847132424016   -0.34605397189658
C         1.41527472038618   -2.64770815052917   -0.04856227608014
C         1.28638622976757   -3.71458384377963   -0.93968391826653
C         0.59055401494730   -3.55202595853555   -2.26164632085258
F        -0.69299501319595   -3.13107922115993   -2.12662263838230
F         1.16786153400525   -2.65377847523909   -3.07834284449648
F         0.51696733207050   -4.68932619087474   -2.96185993944864
C         1.79777158879891   -4.96478710740182   -0.61463808804688
C         2.43843704482482   -5.16336102368827    0.59352273115676
C         2.57026508279068   -4.11102556895631    1.48170693897979
C         2.06010530300770   -2.86675458424782    1.16283012249705
N         1.84890732130700   -0.22954547954401   -0.03239020724727
C         3.11875824977695   -0.28088141340311   -0.53499681474273
C         3.95018081188878    0.91688932288579   -0.20899708961639
C         3.66019678712448    2.16919967145145   -0.80808280294637
C         2.63632365262485    2.33318361065492   -1.76783374738795
C         2.36656051901650    3.56341240975566   -2.29934440503565
C         3.11023443022758    4.68611793084301   -1.90395753400050
C         4.12561205820698    4.55426665016616   -0.99930134457007
C         4.43311211348729    3.29903924443502   -0.43252165476648
C         5.48634291769353    3.13463507315319    0.49137481072660
C         5.77326481561209    1.90450117957530    1.01286497266454
C         5.00230723657072    0.78773893802919    0.66066146718744
O         3.50382503850079   -1.22424764851612   -1.18702262403303
C         1.31753394876087    0.80046876986740    0.80870583369433
C         2.02417309802623    0.86165037995145    2.20021693718735
O         1.73385338080426    1.93282995855705    2.90495549280394
O         2.76155976648491   -0.00441456945845    2.57457285935900
N        -0.08769496858653    0.45799145492627    0.95942246437996
C        -0.94773408123272    1.39709907995924    1.41020076342786
C        -2.37538720183919    1.00399271054957    1.53029209171561
C        -2.74134432487411    0.12454651364113    2.51769859921635
C        -4.07839225618333   -0.27310259861716    2.65453997649437
C        -5.02777563681094    0.19848080542328    1.79295046111356
C        -4.69402798537288    1.13628780351848    0.79359995270647
C        -3.35136834613146    1.58038195730184    0.67799378226949
C        -3.03497117688945    2.55604957294342   -0.28952341298078
C        -4.00117700610225    3.05420568454207   -1.11807126758618
C        -5.32231026052341    2.59087155713514   -1.02862448542826
C        -5.66137496271066    1.65668105843229   -0.09101630710686
O        -0.53140489430053    2.50940823071836    1.72731905524410
H        -4.47850295234406   -2.75378995810872   -0.77047297810500
H        -4.78378107471313   -1.07591598127947   -2.53927511892673
H        -3.02017983559544    0.61052501292929   -2.94733776745432
H        -1.03018427465727    0.66532735709907   -1.51777034058611
H        -0.39649836342213   -1.56170344370187    1.38906098874625
H         0.62661053613834   -1.18230440775292   -1.40908042168213
H         1.69480198282090   -5.78073191865256   -1.31259942133084
H         2.83608022490455   -6.13678531278751    0.83472210345237
H         3.07444367855918   -4.25367685640005    2.42511626718669
H         2.19187881143532   -2.04515110185833    1.85056511524974
H         2.08506170199405    1.46310024729163   -2.09693882372332
H         1.58293881696771    3.67841142976660   -3.03400847571940
H         2.87974047347396    5.65083176217418   -2.33084698508323
H         4.71443676189188    5.41113397824051   -0.70549490573836
H         6.06627215178533    4.00158528961594    0.77308132368847
H         6.58855846586497    1.78198765568075    1.70929632977475
H         5.21732338239480   -0.17619170394281    1.09468957689895
H         1.39717016533222    1.80185722199661    0.34773804462258
H         0.97459244176230    2.44627167988150    2.51397341989122
H        -1.99984898171716   -0.27187782307392    3.19482379353941
H        -4.33880382696123   -0.97000059472742    3.43567690304225
H        -6.05417522072865   -0.12823570027743    1.87402138157669
H        -2.02249288037185    2.92544545482586   -0.35008637978561
H        -3.75304829730345    3.81081690765537   -1.84753338130045
H        -6.07000539400174    2.98812248261057   -1.69883460548504
H        -6.68006290704547    1.30746058408017   -0.00514081309372
