72
 energy: -117.802847530075 gnorm: 0.000589440165 xtb: 6.3.3 (4ae9cef)
C        -2.32544777519785    1.84948119286868   -0.01279532298108
C        -3.49777288372960    2.54754494226247   -0.06187884753488
C        -4.22430913112382    2.66070839731511   -1.26563044659753
C        -5.43293732455101    3.38177396745635   -1.35151772708050
C        -6.10824721408741    3.47060808785105   -2.53649646245969
C        -5.60811298669802    2.84037543773651   -3.68714859153432
C        -4.43963970781679    2.13355135602927   -3.63556464391968
C        -3.71672867840716    2.02603770505918   -2.42907774285308
C        -2.50552292035264    1.31009454160791   -2.34522323329984
C        -1.81174625715118    1.22393942204786   -1.16716507523556
C        -0.53201198794141    0.42685278205284   -1.09854246599191
C         0.59731805069515    1.12373891383455   -0.33237883550893
C         1.94592714095372    0.98109707857854   -0.99344622032020
C         2.70450952595613    2.08905136765914   -1.26236055304011
C         3.97113895916575    1.97439398057578   -1.86925760257283
C         4.77136878107632    3.10156600003807   -2.14996092851366
C         5.99812935241898    2.95794647298206   -2.73471006693744
C         6.48101755153884    1.68223661973723   -3.06712858899482
C         5.72932697179629    0.57069194359353   -2.80766414024032
C         4.46013602591789    0.68493254560547   -2.20396146685233
C         3.65877220255485   -0.43897643825613   -1.91494505392804
C         2.43502884520238   -0.29743415093567   -1.32703313942707
N         0.56712382114058    0.47177728831620    0.97744905239600
C         1.32411143306315    0.95461029623451    1.99650268537026
C         1.26907866249812    0.15049439121047    3.25697767698260
C         2.36143096897158   -0.63714644813657    3.59898136117586
C         2.34216439957690   -1.37028837465540    4.77251650807464
C         1.24293260675164   -1.30788443023200    5.61292397297269
C         0.16357250586546   -0.50494312357338    5.28431425935766
C         0.17426146837854    0.22413938316353    4.10867696214941
O         1.98625993870296    1.96264350919095    1.88008676059013
C        -0.28760985314297   -0.69521840101565    1.01207861104430
C         0.48902914736932   -1.94854982055598    1.46425178629848
O        -0.05430007840534   -2.48485324394538    2.55495162180254
O         1.46798228287099   -2.37953558330178    0.92605803256436
N        -0.75310120312407   -0.80732828948816   -0.34720229599584
C        -1.21644106845323   -1.91978752814772   -0.97630117705962
C        -1.47728732916825   -3.08926947219888   -0.08526923674602
C        -2.47719021201304   -3.02026627318770    0.87854267306725
C        -2.75279232333326   -4.12263358373345    1.66697719448142
C        -2.03153864658704   -5.29357671401102    1.49956071068332
C        -1.04799442322056   -5.37022881664745    0.52697683142438
C        -0.77824047816671   -4.27533965846510   -0.27468304914688
O        -1.42757517321633   -1.93684084716927   -2.17008929526350
H        -1.77984433453102    1.78182386236325    0.91724980833806
H        -3.88566857598064    3.02743939013143    0.82558112159397
H        -5.81439864036238    3.86459601203281   -0.46287049415330
H        -7.03256962328013    4.02633113578421   -2.59687821978699
H        -6.15664731834988    2.92056922292583   -4.61420154226141
H        -4.05022461430423    1.64525284193456   -4.51699371195997
H        -2.12974862785071    0.81701548427679   -3.22959125908646
H        -0.22313001025237    0.15195531848073   -2.11225463497583
H         0.38715557439854    2.19009450510807   -0.18990326930665
H         2.34373103615156    3.07211890147326   -0.99677852130680
H         4.39605224640071    4.08080216488115   -1.88969788634330
H         6.60715475603013    3.82500684891144   -2.94553346630466
H         7.45320858010026    1.58797882024841   -3.52887991961310
H         6.09687782306707   -0.41393398159529   -3.06022574028749
H         4.03122789798467   -1.42216965470693   -2.16414574714466
H         1.84400992591272   -1.17106689470576   -1.10145263566376
H         3.21521711367409   -0.67420537758682    2.93892659656476
H         3.18985178892451   -1.98651532395739    5.03344405935137
H         1.23136971249887   -1.87811925453558    6.53001428517050
H        -0.68728950536759   -0.44467711956151    5.94620510402882
H        -0.66154211798289    0.86181946133435    3.85835350989694
H        -1.12057041401342   -0.55693784763141    1.72507793255424
H         0.44678397391276   -3.26396875575528    2.84621617304682
H        -3.04593301834295   -2.10918616558289    0.99719821295484
H        -3.53156277684867   -4.06848097184233    2.41268602537050
H        -2.24397222331184   -6.15092710294378    2.12108914660751
H        -0.49438140771122   -6.28676563245293    0.38729930353136
H        -0.01923120713731   -4.32603331235208   -1.04032572120907
