80
 energy: -128.405608118176 gnorm: 0.000395787112 xtb: 6.3.3 (4ae9cef)
C        -0.85461753750333    2.79430037103482    0.33741208169915
C        -0.71028175972172    3.90256250129156    1.15279155276013
C        -0.24297140797922    3.75432745970325    2.44702842084556
C         0.09232539756291    2.49652910449277    2.91984190851213
C        -0.04630093835493    1.38792120386370    2.10600409889798
C        -0.53513255046716    1.53109715733995    0.81271958948937
C        -0.70546317392980    0.31406882368423   -0.06029636415289
C         0.66130078024771   -0.29879786553219   -0.45053160901313
C         0.89008801490074   -0.28105658305781   -1.94160593275441
C         0.11507186235719   -1.07233604374377   -2.78044850301668
C         0.33823512218395   -1.06816937008925   -4.14502187812047
C         1.33441107013239   -0.27194176173850   -4.68447773372583
C         2.10106050414397    0.52782962052386   -3.85476087577052
C         1.87804733201101    0.52465490705040   -2.48962546054951
N         0.61489029229902   -1.64851607954422    0.07979237802773
C         1.64007811297905   -2.53330946619659    0.09607556429820
C         2.89172776742889   -2.04445537809057   -0.56538345829362
C         3.73854704271050   -1.11099205283483    0.03642254057800
C         3.46074998169998   -0.58582995339169    1.38484753561954
C         3.14037685108579   -1.44602302104879    2.43154624140057
C         2.89456391887678   -0.94338328063246    3.69616140648136
C         2.95877842371429    0.41938674749355    3.93205110559899
C         3.27595545662023    1.28292033589090    2.89694752070725
C         3.53002768493691    0.78378629312534    1.63337906838931
C         4.86178495938453   -0.67955978287912   -0.66445898865065
C         5.14229285613410   -1.16820579867437   -1.92650043011251
C         4.30740171061343   -2.10734037629710   -2.50832920411739
C         3.18839491459005   -2.54647809291009   -1.82527352403388
O         1.51461884156124   -3.64708516315122    0.56242110002653
C        -0.70048867300506   -2.01549690916089    0.54729660711227
C        -0.65743665964496   -2.77987255646717    1.88529943838102
O         0.00322612627631   -2.08080554840399    2.81225955529001
O        -1.11193322718530   -3.86986669126832    2.05193495050065
N        -1.39082310408284   -0.75270939731171    0.64621737607144
C        -2.44178122277074   -0.61068362665527    1.49105969072839
C        -3.19205613041037    0.67407821355030    1.37762020284097
C        -3.32023317650231    1.47058765979454    2.50752954687900
C        -3.98980165158317    2.67764752813524    2.44059473633179
C        -4.55551010669071    3.08356334334505    1.24320916912501
C        -4.46422311269392    2.27713876034514    0.12445791080758
C        -3.79008130687196    1.06027644678712    0.17268402241732
C        -3.72224264607971    0.19894070356568   -1.01981269851869
C        -3.40143408328149    0.73942029131736   -2.26455502600981
C        -3.29117853692065   -0.07305076933749   -3.37799142829513
C        -3.50991997056975   -1.43613647672048   -3.26712266388370
C        -3.85085929886135   -1.98033889015271   -2.03971487763725
C        -3.95754771301635   -1.17070014745972   -0.92335849158875
O        -2.74637942504652   -1.49057991153643    2.27380247074057
H        -1.22532256058697    2.90713864970879   -0.67102236399130
H        -0.96907054322305    4.88172978278531    0.77846634002633
H        -0.13952365153886    4.61851687301719    3.08621044168715
H         0.46076972909061    2.37674792964198    3.92729203676734
H         0.21079637065259    0.40648897478041    2.47720644296609
H        -1.25605550587975    0.58189795189013   -0.97214751649684
H         1.46341890859110    0.25960225514404    0.04633725248892
H        -0.66266858273116   -1.69575984482266   -2.36490808781054
H        -0.26589048869550   -1.69045640872762   -4.78803069060346
H         1.51224005673986   -0.27454532339885   -5.74947748321081
H         2.87790690426548    1.15221760828411   -4.26991536439824
H         2.48003368913635    1.14463045019680   -1.84151299187706
H         3.10659331859229   -2.51012370568417    2.25649583874144
H         2.65943064116219   -1.62034852427734    4.50401302440433
H         2.76738928463078    0.80722349815175    4.92178747250970
H         3.32616239110475    2.34755442265501    3.07267568038528
H         3.77215660060521    1.46185097005308    0.82634433563500
H         5.52764832187497    0.03374531254952   -0.20027640919139
H         6.01890456068495   -0.82212409241447   -2.45397281471801
H         4.52653282858731   -2.49702097581648   -3.49069500232118
H         2.52816296186535   -3.27668524373511   -2.26891327098134
H        -1.21168281069370   -2.68301224955624   -0.17199613772915
H         0.01797724387724   -2.58354041460200    3.64157795068562
H        -2.87449933450675    1.13824088426416    3.43266117893161
H        -4.07379602090744    3.29798178231541    3.31980252343844
H        -5.08198089296224    4.02474842060265    1.18488453929039
H        -4.93913465469741    2.57843581415550   -0.79805225106476
H        -3.21789724167250    1.80126830499941   -2.35317488069915
H        -3.02830603843465    0.35780814127930   -4.33301428650736
H        -3.42094281092069   -2.07133283397861   -4.13592858786816
H        -4.03487089586252   -3.04066743550056   -1.94909157079585
H        -4.23973938953994   -1.59952645196033    0.02623600994195
