28
 energy: -41.956452723596 gnorm: 0.000289192422 xtb: 6.3.3 (4ae9cef)
C         4.87736593248291    0.31658137691142   -0.50375320309394
C         3.41258050336081    0.07728306866112   -0.32108077323920
C         2.56343718627632    1.06470511385992    0.17161454196162
C         1.21254386389556    0.81263286552270    0.30680687431697
C         2.82916851600145   -1.14526029981961   -0.63345023390364
N         1.54060620379050   -1.39957381989036   -0.52125087032197
C         0.73267188318377   -0.44098672019057   -0.07903673932161
N        -0.60704068918021   -0.79067228042695    0.02872361263814
C        -1.02130456964177   -2.08100699496534    0.28105795733906
C        -2.36884197585277   -2.12989856603444    0.41061969889430
C        -2.85680954831415   -0.80553189399883    0.20495223733266
C        -1.72689279072456    0.01242727340697   -0.04432463518177
C        -1.88076430405438    1.35338446187874   -0.37357061677439
C        -3.15874185238820    1.87528578559800   -0.38474894053827
C        -4.27181727829528    1.08777089902064   -0.09022881888095
C        -4.13503008786698   -0.25339867239783    0.19172202419952
H         5.43920282148055   -0.60423636869027   -0.36482595550235
H         5.07248716007392    0.68142490219431   -1.51290849190246
H         5.23755430739164    1.06340812623670    0.20043492904176
H         2.96475950276729    2.02486566283356    0.46493246682788
H         0.55345780194353    1.54815461482306    0.73697727243756
H         3.43038207181776   -1.97066820642099   -0.99404009387174
H        -0.28579628636110   -2.85688661250660    0.35991591282477
H        -2.96144508652298   -2.99666933981614    0.62573102795074
H        -1.04059038441702    1.97442901747729   -0.64285387889482
H        -3.30077509679932    2.91654810526695   -0.63425640648930
H        -5.25329861534248    1.53855878372443   -0.10305002653626
H        -4.99707218870457   -0.87267228225763    0.39021712868804
