66
 energy: -120.837111276569 gnorm: 0.000172401502 xtb: 6.3.3 (4ae9cef)
C        -5.29450107352248    0.49203241175510   -1.07874749489725
C        -5.63827732143508    0.32836695592404    0.23212174498696
C        -4.65795101287130   -0.03911049247749    1.16302756167436
C        -3.35909305062514   -0.22595294130527    0.77751153529414
C        -2.96025839199356   -0.04844901316152   -0.56569916625931
C        -3.96396279860463    0.30859650578743   -1.50938637297313
C        -3.62225212289561    0.47518281104109   -2.86634264945426
C        -2.33454658435049    0.30044987878977   -3.27850757732047
C        -1.33687996090351   -0.03327895741204   -2.35277145289014
C        -1.61900245323217   -0.20832079969032   -1.02069415877189
C        -0.52394320295832   -0.54200485269163   -0.02473687856545
C         0.82288128531391   -0.97466954994878   -0.63060039863358
C         1.54282905097338   -1.91461223807273    0.30949586970105
C         2.58658650366356   -1.49396944987541    1.08891618604256
C         3.23485108229987   -2.36914845585375    1.97228324502336
C         2.82977450859152   -3.66750864476349    2.07154712107376
C         1.75602630246845   -4.14429616727659    1.29051412285347
C         1.09199052126516   -3.26149525368382    0.39664529462138
C         0.01333556880121   -3.76915108260685   -0.36139767724475
C        -0.37656815981793   -5.07495577075710   -0.24620723096984
C         0.28524783005279   -5.94430000862811    0.63176531081248
C         1.32864841699498   -5.48519370063678    1.38386816870893
N         1.49667991083039    0.30376594813285   -0.82456235236666
C         2.27722223315126    0.52871472273465   -1.90802052980604
C         2.77287747748598    1.93225439551321   -2.05541235918373
C         2.43593349668773    2.70390048162980   -3.12734615343530
S         3.16194571072890    4.25716116050415   -3.08731437565882
C         3.97620058741381    3.87797350713268   -1.62929532175287
C         3.67828915067682    2.62308364928491   -1.20388755125524
Br        4.44796697597444    1.89328347438496    0.35357139578573
O         2.53310325014669   -0.33395984783178   -2.71952657957421
C         0.98713352184432    1.30542367883602    0.08425279366167
C         0.55705786006344    2.62060493334564   -0.59990081114032
O        -0.32441380526588    2.44780868001740   -1.56716092455190
O         0.96638302950589    3.69159191315108   -0.23712194630415
N        -0.12236935702734    0.64524295787542    0.73621688948889
C        -0.32726262523770    0.73978681235771    2.08024489295630
C         0.14945966565127    2.03439932833091    2.64991105660023
C         1.20463818177992    2.21038044779390    3.48918327223103
S         1.41802547137969    3.85549061895866    3.93603967522694
C         0.05667153348308    4.33013283886578    3.00875790365337
C        -0.50941546461393    3.26635917146418    2.38307952435206
Br       -2.04543047274475    3.39247316828429    1.28909154981239
O        -0.91040390748469   -0.09721602920353    2.72977541031775
H        -6.03795703924430    0.76639362300243   -1.81367501427202
H        -6.65801549051628    0.47428570639284    0.55634842106376
H        -4.93255339572272   -0.17697074614995    2.19821524274796
H        -2.64151878530148   -0.50846843963689    1.52869843772300
H        -4.39837468278504    0.74204419977269   -3.56910608409504
H        -2.06562201050983    0.42080208400098   -4.31746057320935
H        -0.33254998661826   -0.13861319675893   -2.73104180287890
H        -0.88118156123586   -1.28548460554102    0.69340410822641
H         0.73465094733452   -1.45729137304522   -1.60640945483244
H         2.94366686586411   -0.47869559736115    1.02560369128155
H         4.05680514831679   -1.99834866728336    2.56588341207050
H         3.32265468539452   -4.35066829080817    2.74784449345040
H        -0.51960809158680   -3.12464158720758   -1.04331549799140
H        -1.20293722484655   -5.44353755331107   -0.83596934776144
H        -0.03596569303893   -6.97256095431080    0.70725048383390
H         1.84686582903859   -6.14364253717035    2.06624589856802
H         1.78262360757259    2.43487580664211   -3.93342251452133
H         4.62413052547226    4.59145968531717   -1.16131697197427
H         1.73711659614574    1.59733196391667    0.83801931034352
H        -0.65507593588047    3.29686967055305   -1.90516252045772
H         1.87735731187867    1.46240688563234    3.85869121813526
H        -0.24973998133824    5.35558472731790    2.96749550270244
