74
 energy: -129.802852719620 gnorm: 0.000360099982 xtb: 6.3.3 (4ae9cef)
C         2.45146611449246   -1.81837747072137    2.37238489497276
O         2.66755525900046   -0.45849225591077    2.29452061807582
C         3.60179061463922    0.14018391898589    3.16640140132711
C         2.93392283876833   -2.58593992223985    3.42573739044731
C         2.68268731035231   -3.94398286911231    3.48426608924718
C         1.95024281133868   -4.55135555734280    2.48293284741865
C         1.47618520712978   -3.79200801994539    1.42961240894470
C         1.69999005150160   -2.42216964682773    1.35552362598545
C         1.19261430356853   -1.71297423286987    0.11287867813493
C        -0.26512681072831   -2.07542857242653   -0.24752288822145
C        -0.37659392059958   -2.79729600732643   -1.56851114141605
C        -0.03364816879592   -2.14327597087329   -2.74021506955584
C        -0.16831951779758   -2.76293556056108   -3.96942155149950
C        -0.66250837045879   -4.05222299858687   -4.02604656940374
C        -1.00742586344219   -4.72435355952053   -2.86673828630051
C        -0.86319856513749   -4.10960723034098   -1.62796924984365
O        -1.14111250215327   -4.71083528513577   -0.43821410063757
C        -1.84328523298991   -5.93094744365563   -0.44658898934025
N        -0.94473159553336   -0.78677398950214   -0.34276179172246
C        -2.27300129039702   -0.75205387848316   -0.63974927250910
C        -2.86900898144068    0.59726229297340   -0.81160589609272
C        -2.45944474529549    1.67238056391428   -1.54503819466903
C        -3.48985262394944    2.64820511163284   -1.42544596330155
C        -3.68821328843183    3.94208839825667   -1.90582109166192
C        -4.84925924119622    4.59268054952827   -1.55402284342119
C        -5.80888706837171    3.98411676799182   -0.74033751050325
C        -5.63675714644762    2.70531367497844   -0.25230159984680
C        -4.46825514299544    2.04656027978266   -0.60571867806609
O        -4.08663655026063    0.80259022527292   -0.25991165099246
O        -2.91236247436727   -1.76902688043096   -0.80830696998772
C        -0.12550050870998    0.28689814379480    0.17113499288236
C        -0.64201860083726    0.73253115104196    1.57746530341743
O         0.20097281080103    0.62383715385188    2.58133255527919
O        -1.75593510469609    1.15301737431222    1.70257389264254
N         1.20608653200971   -0.25718681493227    0.16683861655951
C         2.34204441911127    0.39729132107914   -0.23044714533463
C         2.33428990109028    1.86252207639653   -0.11261796307011
C         3.28030727586915    2.73261308925330   -0.57447765149069
C         2.86295818033513    4.03135125466640   -0.16907017337057
C         1.65858430736554    3.83083604952541    0.53813831722654
C         0.93853363764509    4.87751848128789    1.09310524680019
C         1.45699490577931    6.14516103905541    0.92623432841621
C         2.65071682656659    6.36420930756600    0.23141225809664
C         3.36392453814047    5.32494168928049   -0.32135584033473
O         1.34565633133079    2.51623830341187    0.57061540556628
O         3.33024992862175   -0.20085557819975   -0.60935560616061
H         3.70456792171912    1.16766329559376    2.81936787467913
H         4.57226264476299   -0.35710583427698    3.10689911619807
H         3.24250346155443    0.14184750529644    4.19952768322601
H         3.50908541669878   -2.12516963532879    4.21220546065418
H         3.06436841518705   -4.51970028438180    4.31348314819242
H         1.75234926741743   -5.61118919229489    2.51501165172955
H         0.91765778443099   -4.27102108594093    0.64199693135670
H         1.86835363400007   -2.00618022277911   -0.70524434071767
H        -0.73634951768622   -2.68205802415112    0.53335364614667
H         0.33572135239227   -1.12897635199002   -2.68690637007798
H         0.10138492595924   -2.23977765082938   -4.87372035708579
H        -0.78461411943458   -4.54519630620562   -4.97891229695933
H        -1.39296969974104   -5.72887615680142   -2.93790959426502
H        -2.78304850431774   -5.84439087207928   -0.99816166706734
H        -2.05700528722397   -6.15184221547878    0.59810969984236
H        -1.23923651118168   -6.74063550102166   -0.86996035154891
H        -1.56383447064909    1.75999637462634   -2.12768349671560
H        -2.94779815655544    4.41523247483328   -2.53312242771306
H        -5.02793015153317    5.59622870929059   -1.91115017179397
H        -6.70541937151529    4.53066198807373   -0.48916805120599
H        -6.37102146252416    2.22905251841004    0.37669084794763
H        -0.20153142794600    1.17002189610056   -0.47344868190106
H         1.08615472012448    0.26859604415157    2.32370904081749
H         4.15406660667364    2.46465228614386   -1.13176470898936
H         0.01838787632720    4.69499866472102    1.62393625060404
H         0.92892237061224    6.99009548500464    1.34077835993055
H         3.01504688934039    7.37520252543695    0.12795764199396
H         4.28323660268432    5.49562309298659   -0.85940901996801
