60
 energy: -133.338152606459 gnorm: 0.000873966815 xtb: 6.3.3 (4ae9cef)
C         2.31814596229933   -0.77285136634526    1.47950947579186
C         1.57133397994763   -0.19056320358511    2.65170487526537
F         1.77137160880281    1.13811307776701    2.78476962402229
F         0.24054334210988   -0.36155222836755    2.60643195716357
F         1.95896798345483   -0.72631917799153    3.81696256546341
C         3.52191471288605   -1.40926394850704    1.77250885928671
C         4.28728424710047   -1.97487839789999    0.77211579397255
C         3.84685958499225   -1.91714194720544   -0.53790809563275
C         2.66263629193879   -1.27180164461599   -0.83300383282512
C         1.88324472785264   -0.67460232931213    0.15500436859177
C         0.62102878348613    0.01200513065723   -0.31247219925741
C        -0.64771993981658   -0.84911483319444   -0.11328132137640
C        -1.09207700152655   -1.48747051392815   -1.40791181359831
C        -1.03893238470193   -2.86401567520100   -1.63054573341525
C        -0.51626173889516   -3.80274379854310   -0.57791191805413
F        -1.22534668352834   -3.79943723605651    0.55958067918745
F         0.75661913287847   -3.49983073908430   -0.21361943241340
F        -0.47300639823886   -5.07553940954076   -0.98760679247687
C        -1.46711525314321   -3.39582809432447   -2.84122708228293
C        -1.94611274214487   -2.56472186406566   -3.83626097946996
C        -1.99120836273037   -1.19703645221648   -3.62785554447810
C        -1.56265661624479   -0.66522601576216   -2.42650525359036
N        -1.64196574594557    0.09581342490371    0.38095110676037
C        -2.94764342490711   -0.27044012186178    0.47472437755328
C        -3.83004803818377    0.73923785708960    1.10715725290540
C        -3.80897107069345    1.19775776371606    2.39198732583948
C        -4.85148585108362    2.10156767032903    2.67682433173958
C        -5.64791866289228    2.30679030039554    1.59290273779724
Br       -7.12456297505684    3.45519936757077    1.49079137831724
S        -5.15895549544511    1.38578341541592    0.21135265881341
O        -3.35308528339567   -1.33656759789014    0.06821812119047
C        -1.08453374957905    1.38079972408145    0.71212116241457
C        -1.71004417986930    2.51102677104635   -0.13915130577810
O        -2.40582786270469    3.36516550811058    0.58593133682154
O        -1.58800120336637    2.55810547451117   -1.33248552801512
N         0.31349677271019    1.26181608762871    0.35503140028113
C         1.04528900819508    2.40740003917310    0.33181197345310
C         2.45685782216008    2.28048956037356   -0.09829463090250
C         3.54890193491164    2.57881307005264    0.66180754280414
C         4.77118126621336    2.38335350632501   -0.01276728690114
C         4.57869214417959    1.96718733547383   -1.29259327563758
Br        5.89705516565629    1.55389206225669   -2.55590987096702
S         2.90538898914024    1.81093162728071   -1.70309213061327
O         0.56408790697925    3.45802887315244    0.70254733414144
H         3.85382243672807   -1.46661647476482    2.79734110181626
H         5.21614270918606   -2.46379641547707    1.01864743965138
H         4.42501775735323   -2.36612512722704   -1.32997156793313
H         2.32619578041564   -1.22397129707244   -1.85783408881604
H         0.73224834720252    0.20719328774060   -1.38946733115792
H        -0.48707313770301   -1.60574719581609    0.65990739820357
H        -1.42915878726996   -4.46247509735306   -2.99779266861754
H        -2.28294863674197   -2.98675873789193   -4.77012316148415
H        -2.36112160616096   -0.54067691953209   -4.40036802657532
H        -1.60762082707916    0.40277412535648   -2.26874677971037
H        -3.08302708204790    0.88414894163884    3.12003018395763
H        -5.00202458582375    2.57635769846525    3.62863793557812
H        -1.19078693114687    1.64326349454387    1.77380194101439
H        -2.72805028887382    4.10815141037340    0.04817890233788
H         3.47159146399998    2.90705074753338    1.68171410486439
H         5.73937368414402    2.54489850762973    0.42370040498204
