68
 energy: -120.238276697148 gnorm: 0.000300090688 xtb: 6.3.3 (4ae9cef)
C         2.04627765444069   -2.75566742550090    1.06642680653455
O         1.80553441494783   -3.29588192676260   -0.15910676789693
C         2.12242814773940   -4.64780322186726   -0.37830435148796
C         2.59942518324275   -3.44024710118486    2.14036128842513
C         2.80359434909673   -2.79199386256742    3.34769452841262
C         2.46555530457083   -1.46161890428216    3.49612701681517
C         1.91234374319276   -0.77454316579518    2.42727214926975
C         1.69772828805794   -1.40431382362837    1.21659559788369
C         1.06521416850036   -0.71314152530781    0.03819150711922
C        -0.45319961368290   -1.00407652278427   -0.03971150419517
C        -0.79812739500128   -1.98061025674762   -1.12749475053790
C        -0.68758633911863   -1.62202513744101   -2.45898697918093
C        -0.99518242616955   -2.51915834768480   -3.46640445550858
C        -1.41271783741189   -3.79287260057274   -3.13258303448257
C        -1.51968745757263   -4.17376197050171   -1.80578438884213
C        -1.21265038935153   -3.27598089224270   -0.79054087476395
O        -1.26926840923704   -3.56986607689772    0.53869216442523
C        -1.76580509325083   -4.82598003636885    0.93004058574708
N        -1.03978214741740    0.31230579643585   -0.27576167440496
C        -2.36703230472539    0.47763803027296   -0.52423833502228
C        -2.78129429093314    1.91172413782475   -0.67483570856066
C        -3.70156366725072    2.45786273632824    0.21011289349972
C        -4.10692479368055    3.77361661540786    0.07489607918786
C        -3.59467067816643    4.53423385285165   -0.96259449553857
Br       -4.14313216657404    6.34558262306496   -1.15448239402999
C        -2.69486762421447    3.99893047995666   -1.87020927678909
C        -2.29041008255485    2.68543822349068   -1.72184256958898
O        -3.14016337222922   -0.44444483766394   -0.64694367114010
C        -0.15618345838849    1.33256330736709    0.21387218955851
C        -0.42085685611047    1.69971937564800    1.69474021238929
O        -1.31191979975592    0.90346303870722    2.26881144470855
O         0.13126877771458    2.60609186540628    2.25389369577101
N         1.15003264315362    0.73911139233619    0.08305842748861
C         2.32780928524553    1.38304771061025   -0.13471592539837
C         2.22686519979306    2.87810756362113   -0.16259892944379
C         1.73331693065905    3.52730270774150   -1.28911506658712
C         1.65603405395749    4.90761791283466   -1.32217485540387
C         2.07756833619576    5.63062942996548   -0.21897586659944
Br        1.95649829708479    7.52911691643909   -0.25372824805275
C         2.58848685872859    5.00121898975700    0.90293038551021
C         2.66677996856459    3.62077977461945    0.92463235526235
O         3.36683141476794    0.78244107190673   -0.29053377654709
H         1.57268043144235   -5.30506926944684    0.30319940382692
H         1.81666192888063   -4.85476222996101   -1.40306975387857
H         3.19641562175539   -4.83324861254076   -0.27478172792650
H         2.87998800218717   -4.47738667523949    2.04729799082874
H         3.23554510312319   -3.33749715228411    4.17337074464751
H         2.63261592940166   -0.95682302474911    4.43507535650611
H         1.66140131019262    0.27051797032164    2.53621032758564
H         1.57122373427622   -1.06070877977740   -0.87060867734952
H        -0.81178674727627   -1.40010025241326    0.91767064511103
H        -0.36288302274752   -0.62164891674882   -2.70725780038261
H        -0.91126573940921   -2.22517125490142   -4.50127051651739
H        -1.65945273324443   -4.50379531566899   -3.90717681070237
H        -1.84808321060298   -5.17487776070335   -1.57493820119172
H        -2.79257437953271   -4.97783363811550    0.58358759364571
H        -1.13422765962393   -5.64320820110635    0.56525768790778
H        -1.75009425107352   -4.82094243231018    2.01923565421998
H        -4.10047684476864    1.84565474127485    1.00432580462094
H        -4.81745288222510    4.20356907888547    0.76380723859303
H        -2.32036612485874    4.60216045261094   -2.68282135426282
H        -1.60432391603226    2.25308070862168   -2.43558534405867
H        -0.22777311626099    2.26730403025041   -0.35685096688565
H        -1.44470177273044    1.13536339193587    3.20328859648747
H         1.42197794659785    2.95407047700914   -2.15089813994135
H         1.27563974016894    5.41755373202787   -2.19399289570881
H         2.91974564941012    5.58228236269313    1.74933321158310
H         3.06500218608894    3.11696165356197    1.79091350522727
