68
 energy: -115.287615923781 gnorm: 0.000338248237 xtb: 6.3.3 (4ae9cef)
C         1.75914628216134   -2.44154073118027    0.05718507987786
O         2.20371368001011   -1.49590433365729    0.93652744573162
C         3.19376225795271   -1.85100068910760    1.87177138510465
C         2.15839301688594   -3.77210945700255    0.08307052460693
C         1.64163911916618   -4.67708653643698   -0.82812183807308
C         0.72262030551807   -4.26801129627731   -1.77437881579468
C         0.33291081973783   -2.94089843387001   -1.81218358866915
C         0.83958362185278   -2.01755128581426   -0.91352160772849
C         0.38278988161648   -0.58739854229099   -0.99503712631322
C        -0.57126591352546   -0.19871149955193    0.16341254142357
C        -1.98477251879897   -0.58613542548991   -0.15693895312504
C        -2.62995526170586   -0.12378387942576   -1.29374278668124
C        -3.92371095301632   -0.51306480615147   -1.59153994603009
C        -4.58090248299606   -1.38689670369202   -0.74709321235921
C        -3.95034421717475   -1.87818834516227    0.38249576002896
C        -2.65054517890021   -1.49030346612366    0.68747965354148
O        -1.96021505137409   -1.92210737669368    1.77753769235781
C        -2.58145067877233   -2.82320215472389    2.66260758286713
N        -0.27051705459879    1.23102017529911    0.33782675526729
C        -1.12561103442037    2.21742935103358   -0.05984906221429
C        -2.47126642898646    2.14490283599153    0.50299344530007
C        -3.60941009371193    2.67427212231596   -0.04187927122806
C        -4.75133392579717    2.49656618046248    0.76821477692757
C        -6.11789020698583    2.95152041537388    0.38066254239287
C        -4.44040295172233    1.86019934165584    1.93425406390681
S        -2.77934419000701    1.45580066594518    2.06108567215749
O        -0.80809256830698    3.15709642857321   -0.78627846516235
C         1.19000785040100    1.26715724139677    0.23300454738703
C         1.91144358677842    2.64437846910343    0.21405361897690
O         1.70194084758630    3.44255662731085   -0.80459722894203
O         2.65809025229297    2.90654249106432    1.11752645933092
N         1.46508589854914    0.38338019549060   -0.88601063253185
C         2.40038887783378    0.42756029559822   -1.87439460316704
C         3.58320737322188    1.25600907471803   -1.60344991136615
C         4.35981502170992    1.26196750023282   -0.48107896664169
C         5.48668346200901    2.11009186348588   -0.58624465525734
C         6.45535282602585    2.32521253302809    0.52763366721158
C         5.54327328856219    2.71409705501921   -1.80546738223710
S         4.25340568246556    2.25853115035311   -2.84206065527600
O         2.26649306904239   -0.23160242170552   -2.88863419791305
H         3.40810545294308   -0.94244564917039    2.43402020352207
H         4.10752143227178   -2.19541269148892    1.37780439817266
H         2.83785824305913   -2.62256217535943    2.56214439235613
H         2.87562824613600   -4.11530502600099    0.81159902980483
H         1.96724239649182   -5.70605453096770   -0.79282542363764
H         0.31985508310535   -4.97144446187503   -2.48631769050597
H        -0.37248180322522   -2.60870058714756   -2.55897425535882
H        -0.11110466653123   -0.44757948075570   -1.96508084559191
H        -0.25630163646195   -0.71301109823614    1.07575367240537
H        -2.12091671031667    0.56553042739668   -1.95178738592164
H        -4.41120065133777   -0.13553051229102   -2.47649747356662
H        -5.59200233907734   -1.69622758331875   -0.96455209443626
H        -4.48189168027216   -2.56369223351560    1.02257546232715
H        -2.84060526684546   -3.76205722882594    2.16389714404344
H        -3.47673769884040   -2.38736361544211    3.11655333605650
H        -1.84539188751742   -3.02075513621703    3.44014193232208
H        -3.62043733825728    3.15921008822551   -1.00122334788172
H        -6.43343838008297    2.44684342221768   -0.53142659888433
H        -6.83419216214109    2.73431196324528    1.16810698584657
H        -6.11785736503390    4.02318186216786    0.18889788581753
H        -5.10336543507872    1.61295244136800    2.74019770389612
H         1.54850043389882    0.78718827082117    1.16133626563721
H         0.76242488815917    3.34584849281637   -1.14245118007207
H         4.13555632384316    0.68174698947107    0.39550047281125
H         6.88143760222355    1.37648375192427    0.85104352418283
H         5.93752226281993    2.77218034420668    1.37506869108824
H         7.25959721247067    2.98604576703041    0.21610711275973
H         6.27395813300440    3.41582356060296   -2.15645122491305
