72
 energy: -162.013389925146 gnorm: 0.000366217765 xtb: 6.3.3 (4ae9cef)
C         1.59481927823341    3.13546674985296   -1.43978221160036
C         1.14794448199672    2.23223856149392   -2.55714935858322
F         0.04574427884293    1.49807032441723   -2.31631825686663
F         2.09807744612319    1.33829831449948   -2.90395757607208
F         0.87115236067691    2.91330661248121   -3.67862917387182
C         2.22731640175399    4.30820761045171   -1.84495874263992
C         2.71408730051825    5.20813027628542   -0.91875898592197
C         2.57923265910016    4.93485885070872    0.43010276510189
C         1.97062457058945    3.76366468555421    0.83427191941930
C         1.47402825104100    2.83951527674865   -0.07994724666531
C         0.79739263658236    1.62367061192844    0.49912227777906
C        -0.74215954932864    1.69641330857450    0.43801012338783
C        -1.33404973457785    2.21201449920295    1.72630221242496
C        -1.97263932524716    3.44979370933652    1.81869363678462
C        -2.10451266946851    4.35150062850284    0.62117034954377
F        -0.89965510563369    4.67538747899038    0.08961261290092
F        -2.81272963006332    3.81909050208361   -0.38509555871535
F        -2.68985222235482    5.51982507151753    0.91089022745792
C        -2.49979199549753    3.87973538567656    3.03084847868019
C        -2.39338891364740    3.08676336460098    4.15772822461319
C        -1.75220716787371    1.86278814499235    4.07781934599845
C        -1.22502859742794    1.43426320203605    2.87419526293531
N        -1.13314270700865    0.31532427981468    0.17248008929444
C        -2.43040857369887   -0.07476995400866    0.28475282489118
C        -2.67010067023212   -1.52204018882257   -0.02380200285806
C        -3.10736581433285   -2.36440504909159    0.99209267286382
C        -3.32375804899004   -3.70756928766761    0.73846351001421
C        -3.10570505555017   -4.22305234163576   -0.52801014417228
C        -2.69701612680929   -3.37263335563769   -1.54500658588768
C        -2.42878874088747   -3.88868299838831   -2.93103049484690
F        -2.62957683444833   -5.20502552278438   -3.05890835594353
F        -3.18908857668846   -3.29018123549670   -3.86100244760293
F        -1.14852169709127   -3.66424928440906   -3.29869515856426
C        -2.49024132284105   -2.02110656344703   -1.30552436399900
O        -3.30697988964106    0.67954684160618    0.63832032160706
C        -0.01277785499382   -0.52960017478309   -0.17187268996773
C         0.15718974762840   -1.62891010679432    0.90379499856112
O         0.02507642398227   -2.84970688725656    0.40288407965409
O         0.37438563231717   -1.39048380290887    2.05879647028161
N         1.11713389051976    0.36864937290137   -0.16647634063275
C         2.41777934564014   -0.00778613386216   -0.34292039095121
C         2.56317759017359   -1.42533009868968   -0.81149866362405
C         2.96732888407894   -2.37855758451688    0.11157464027336
C         3.02192060001229   -3.71281035060147   -0.26947046138448
C         3.28755769260298   -4.74291236241636    0.78922785275652
F         2.15501910288001   -4.96049483327263    1.51366036790284
F         3.64942661797682   -5.93504277846880    0.30781962423752
F         4.22006468409224   -4.37598255096478    1.67385588415274
C         2.71799847840010   -4.09845014584919   -1.56707996028092
C         2.36451354063586   -3.13270994909202   -2.49350554278210
C         2.27112283608822   -1.80444431721116   -2.11672712660179
O         3.34067929277447    0.73834449374779   -0.11957556664989
H         2.33071529812765    4.51568048061281   -2.89874665003658
H         3.19631329842875    6.11333561722394   -1.25184724575573
H         2.95262992546231    5.62802965975584    1.16769754147628
H         1.87680463014996    3.55174111637769    1.88871743551357
H         1.11136467965224    1.54255520159980    1.54984646588899
H        -1.06870659128699    2.30717633920617   -0.40737333986007
H        -2.99734504061566    4.83524381192140    3.08683668698100
H        -2.81189957385491    3.42551556180697    5.09239786604267
H        -1.66242880544831    1.23801010258393    4.95326247551496
H        -0.72982972862848    0.47597673215690    2.81943048013562
H        -3.27061672751822   -1.95762969103262    1.97873926773906
H        -3.65900889851518   -4.35882017164197    1.53056303233148
H        -3.25819087056144   -5.27199237836747   -0.72887488074297
H        -2.20429536748063   -1.36761928416496   -2.11648621324539
H        -0.13087011859657   -1.01156361364519   -1.15118627648698
H         0.16163275523682   -3.53467406425820    1.08223329307614
H         3.21656057626014   -2.08864525654919    1.12182998168483
H         2.75973868586028   -5.13999253586280   -1.84494458201402
H         2.13521683954961   -3.42105220551135   -3.50661749249295
H         1.98090983283785   -1.05920472213589   -2.83911221158303
