80
 energy: -125.750417293375 gnorm: 0.000419220750 xtb: 6.3.3 (4ae9cef)
C        -2.00862170806759   -3.22697098504536   -0.23808724446583
O        -2.36100646146288   -1.95967066618273   -0.61487213902723
C        -3.69358992001055   -1.72385673943180   -1.00539088436520
C        -2.79346758156164   -4.34453336923086   -0.50037346095330
C        -2.37210995746491   -5.60645784543213   -0.12230480009846
C        -1.16742340660292   -5.77033713674450    0.53356917091447
C        -0.39350941597776   -4.65956032102751    0.81374601058912
C        -0.79185410695335   -3.38680476499675    0.43668105937898
C         0.13385890602743   -2.23941923400695    0.73895514048216
C         1.09182551372800   -1.94671445311017   -0.43822209267104
C         2.41610444610974   -2.62906163079573   -0.24810933353218
C         3.39204134284666   -2.09478496380824    0.57358058953596
C         4.59552721431816   -2.75064422098852    0.76710677905398
C         4.81750098290005   -3.96026505355199    0.13824885854596
C         3.84587132282792   -4.52010347420767   -0.67464193314539
C         2.63709718139676   -3.86468585953406   -0.87331983347219
O         1.61406431570027   -4.34387529917717   -1.63710152574226
C         1.75711987549209   -5.60480459810117   -2.24179250020706
N         1.18555256057343   -0.49347629601537   -0.43361821459180
C         2.02496527141111    0.17265275788124   -1.27995488057690
C         1.89887096790408    1.66122523739933   -1.20649232498291
C         1.57797174218420    2.38217422881058   -2.34840788620546
C         1.46348674699402    3.75890546596586   -2.29218195456034
C         1.68145534640672    4.44372975319043   -1.10357941571766
C         1.60734396203677    5.94245638561835   -1.05731757741908
C         2.97571578320050    6.55068904549971   -1.37276937671092
C         2.02979437515843    3.71794626382881    0.02932687421422
C         2.13539315524495    2.34119709562660   -0.01664351456214
O         2.82560572938952   -0.39140653226756   -1.99218795463746
C        -0.04095663122853    0.05457265179681    0.08149344491480
C        -1.07525185783923    0.32007323263528   -1.03776735783112
O        -0.71596455485905   -0.21009436271055   -2.20002627119557
O        -2.06827682053797    0.97723550858865   -0.88614820633471
N        -0.50640138821113   -0.95817644724972    0.99647806050425
C        -1.44780758791420   -0.82816253383899    1.96851733358534
C        -1.96614038199952    0.55790426922378    2.16757445674308
C        -1.13649000951249    1.56869711186197    2.63905295223157
C        -1.63212742628725    2.84574405870137    2.81930031339795
C        -2.96006657708837    3.13970086604617    2.53653789144434
C        -3.47174045161709    4.54634254963939    2.65427157048002
C        -3.25071602529509    5.29626621948547    1.33870489212601
C        -3.78972206215071    2.11646868252390    2.09769680700830
C        -3.30346071174896    0.83474487395509    1.92443053375512
O        -1.81144163392492   -1.77856419008906    2.63058760484276
H        -3.79332894334568   -0.63977218494030   -1.06538883137419
H        -4.39824596517081   -2.11110886687606   -0.26412525256473
H        -3.91237187577154   -2.16679189262054   -1.98360486108886
H        -3.73876427202640   -4.24003306858983   -1.00909470411982
H        -2.99595579728204   -6.46025252707140   -0.34174235452011
H        -0.83732826124312   -6.75282866738772    0.83425490575193
H         0.54303501858536   -4.77473679355977    1.33969352424577
H         0.71505065484472   -2.50558175627059    1.63320174448811
H         0.64653369736743   -2.28920109055736   -1.38007045562389
H         3.20814203614655   -1.14783759877973    1.05872262982819
H         5.35281716311652   -2.31864374030408    1.40300994137234
H         5.75313636602848   -4.48120608077025    0.27747240051113
H         4.04406048605450   -5.46640328321625   -1.15235230867636
H         0.81247697054400   -5.79267404518142   -2.74955136694120
H         2.57121144384739   -5.61274285318937   -2.97353675093200
H         1.92562777733649   -6.38927814356068   -1.49717261328672
H         1.41820127547479    1.85399819760637   -3.27651345851874
H         1.20364058817306    4.31124523851913   -3.18389781635083
H         0.87720666501300    6.30057595085299   -1.78565065670066
H         1.28898985630497    6.26807013934223   -0.06494536852466
H         3.71507740573544    6.21379220237158   -0.64971763619594
H         3.30503917651900    6.24637900692667   -2.36357333103131
H         2.92639198306322    7.63653699364472   -1.34028695613989
H         2.21912145920096    4.23847750912951    0.95736315169473
H         2.42108952110363    1.79084383747823    0.86885110598475
H         0.10943861493506    1.01319772330953    0.59296005653753
H        -1.38988370729975   -0.04542308939768   -2.87903919017476
H        -0.10573713800942    1.35101477319031    2.88467657654070
H        -0.97933151386944    3.62628004876441    3.18425459202276
H        -4.53788095886026    4.53608803117292    2.88852779789116
H        -2.94946209723244    5.06742433423246    3.45925891845471
H        -2.19089111723165    5.32911076964359    1.09560806755663
H        -3.76819071828647    4.79105210138704    0.52663725430466
H        -3.62452139710497    6.31508304553317    1.41217712498111
H        -4.82899511349676    2.32675130770590    1.88963885028117
H        -3.95442034665390    0.04230019072987    1.58940360958023
