76
 energy: -127.562234791347 gnorm: 0.000459322269 xtb: 6.3.3 (4ae9cef)
C        -1.65208719564060   -0.75362819575664   -1.30034539427138
O        -1.13671167404928    0.23878928047323   -2.06303082755985
C        -1.28195330956262    0.17803105527590   -3.46256616571109
C        -2.35966105374656   -1.84444166910631   -1.79479783342032
C        -2.84263428647954   -2.81489438527451   -0.93386147805302
C        -2.62151455813157   -2.72071313279589    0.42685229526603
C        -1.91909503093802   -1.63762114974689    0.92556029549922
C        -1.43990469592241   -0.64878420374104    0.08466111480328
C        -0.66788554378887    0.51070599072272    0.64653486701440
C         0.82769370214566    0.48033753205047    0.23824175129698
C         1.61088441196530   -0.31358184339315    1.24420168563206
C         1.88970650084583    0.19724259103397    2.50076995981127
C         2.58356517124367   -0.54911369617252    3.43622185120048
C         2.99069560441322   -1.82957503533304    3.11493529483837
C         2.69519307221911   -2.37084201992101    1.87565618811127
C         1.99752081932410   -1.62465471511345    0.93357946587705
O         1.65136916015986   -2.08089200191678   -0.30467855738292
C         1.93781749221440   -3.41685596491909   -0.63655001815638
N         1.15720519879283    1.88910784427066    0.16666835013016
C         2.35064707202268    2.52585153010789    0.30116999386897
C         3.55348648691456    1.66656907239213    0.50081288654527
C         3.91635724574080    0.71132247132514   -0.46236448558577
O         3.10724254325402    0.61453814494071   -1.54036072554641
C         3.48101656907705   -0.20248722615665   -2.61953748439147
C         5.06379123586347   -0.04841047819214   -0.25893151577079
C         5.84071663915631    0.14776167189981    0.86981688036945
C         5.50621351010646    1.11746132472930    1.79647420805796
C         4.36994923068605    1.88178533212973    1.59894369753114
O         2.41170691536768    3.74058442892500    0.30615005676549
C         0.00127769375896    2.61515123059780   -0.28582284009726
C         0.00782898678438    2.79388050454910   -1.83470084468513
O        -1.03512842880065    3.44392975758683   -2.30973537127506
O         0.90082342656451    2.39330950039911   -2.52375652829497
N        -1.11876428892401    1.80801300563585    0.17100585321550
C        -2.38266015776064    2.25299189711029    0.18387366376632
C        -3.37244673218020    1.35595074528707    0.84997262944703
C        -3.40679538449599    1.24313793661821    2.22927889892849
C        -4.34921088324684    0.43578784345119    2.84305353701461
C        -5.25736654787102   -0.25937097487191    2.06688256233166
C        -5.24280746986565   -0.14772690751653    0.68715206609472
C        -4.30602654574356    0.66745343733886    0.06291666683661
O        -4.19261825633813    0.83775090851671   -1.27814645474732
C        -5.14752597428892    0.23260373613347   -2.11569413355351
O        -2.69545740186038    3.33917479254416   -0.29708292990880
H        -2.33311638455979    0.25297437511990   -3.75518037503149
H        -0.73427059554423    1.03653302195635   -3.84684905725599
H        -0.84790122681277   -0.74099813320190   -3.86860499257158
H        -2.53993761221283   -1.94221469809220   -2.85373434079370
H        -3.39369881864999   -3.65215212895034   -1.33715625723388
H        -2.99481766786132   -3.47966897606818    1.09643030760532
H        -1.74310198180859   -1.55240974439464    1.98792460457014
H        -0.73794802284989    0.48359647196070    1.74324748098976
H         0.92956907595359    0.02793149301438   -0.75336717539640
H         1.57095569480121    1.20104303001519    2.73961968609498
H         2.80486242857786   -0.13303143059609    4.40642662577127
H         3.53810460065515   -2.42215759525179    3.83221987262311
H         3.01412590065299   -3.37688851401500    1.65431882771396
H         3.01526651267080   -3.61299665159616   -0.64371717285370
H         1.44559989425303   -4.11364897299281    0.04887896919038
H         1.53863462185179   -3.56108676430094   -1.63966544290056
H         2.73728658214544   -0.00826246873261   -3.39020584020843
H         3.46026413523162   -1.26336080546786   -2.34702072187075
H         4.47369408939270    0.05898390219258   -2.99911301475194
H         5.35855941080961   -0.79554785378432   -0.97952523709621
H         6.72391464221982   -0.45722683753391    1.01371855306446
H         6.12714429394066    1.28070286906132    2.66354592464674
H         4.09706294113713    2.65312743049785    2.30297062804589
H        -0.02098363251734    3.62015989912938    0.16496517241103
H        -1.72733880727802    3.61955072592523   -1.60847094321192
H        -2.69885846651882    1.80222782206059    2.82360805429966
H        -4.37385871133900    0.35321147517580    3.91845261328895
H        -5.99323244195357   -0.89560429929960    2.53538368643344
H        -5.96478529732951   -0.69961868466189    0.10712331566340
H        -6.16265128247138    0.55422081017088   -1.86478786146493
H        -5.08458367109085   -0.85982895827495   -2.06665972326390
H        -4.90840947247481    0.56681322478891   -3.12420029834431
