66
 energy: -129.867564234194 gnorm: 0.000319484459 xtb: 6.3.3 (4ae9cef)
C         4.68218835376338   -2.17470434921963    0.50130818015847
C         4.74175659768846   -1.41781790513859    1.63618956398666
C         3.76762894015420   -0.43717129160322    1.86806468521405
C         2.76116941936728   -0.22734457235053    0.96674943664676
C         2.66705243496958   -0.98741501186591   -0.22045124499027
C         3.65444970416461   -1.98678572294285   -0.44702320752095
C         3.59381725246628   -2.77906264791073   -1.61141408919743
C         2.59386303132000   -2.59755299716929   -2.52227696049308
C         1.62257546479090   -1.61255206546842   -2.30759583450082
C         1.64504026434472   -0.81329106897905   -1.19274063982276
C         0.54349465486961    0.20401165626465   -1.03095106315651
C        -0.37828637297679   -0.09244810450539    0.16896160309154
C        -1.67676770987537   -0.73578059601289   -0.25414646365620
C        -2.55110481974620    0.00556271676291   -1.01240129396932
C        -3.80934704093377   -0.49481990911271   -1.36713073076868
C        -4.19970572313388   -1.72910017313944   -0.93319918129956
C        -3.32646805934181   -2.53081244222531   -0.17055591629141
C        -2.02302047222978   -2.05417555208023    0.14590915911304
C        -1.15890503064572   -2.91902977151819    0.85417183161065
C        -1.57883660013066   -4.14937357645963    1.27657407711097
C        -2.88200745460192   -4.59188929038347    1.00946498763400
C        -3.73039483306658   -3.80247689325368    0.28803344554576
N        -0.59468403821763    1.21822139187024    0.76813151972569
C        -1.64570637460100    1.61993400547560    1.51489465673665
C        -2.46857643475304    0.52863686947139    2.10550592484362
C        -1.99713425350455   -0.43975849539444    2.94370181656179
Cl       -0.40185991928866   -0.60686822896235    3.51830117499339
S        -3.23479121341955   -1.54917692183771    3.44622857327913
C        -4.40051825043023   -0.67285038134266    2.50039109364522
Cl       -6.01530178688500   -1.19704619888694    2.41736275880645
C        -3.86257180060522    0.40364999803734    1.87340534862932
O        -1.87141437637187    2.80094418217886    1.69917848241159
C         0.27414947723357    2.24258660274776    0.22638394667790
C        -0.59297073494994    3.38691033443597   -0.34772347295491
O        -0.24127907041168    4.56596891472309    0.14043914513368
O        -1.42759334793502    3.21457621490101   -1.19227508626887
N         1.03157766715218    1.56052191802651   -0.79246197956597
C         1.82888142404002    2.15252549253539   -1.71672319166696
C         2.16717924691739    3.58129550173406   -1.42921026030768
C         2.92123564422712    4.02017189245390   -0.38131918354075
Cl        3.62317827351044    3.06089788480430    0.84210488184737
S         3.15994403596771    5.74004369830530   -0.40376286462256
C         2.22540999440962    5.84961027145463   -1.86500151753917
Cl        1.94646908831266    7.35839020920202   -2.60602961757326
C         1.78093199966413    4.63925921195396   -2.29185008598392
O         2.24138935066703    1.57321568143028   -2.69482464349954
H         5.42508595198464   -2.93551080367336    0.30868512836185
H         5.53138576315114   -1.56749043739397    2.35746309649400
H         3.81624892268875    0.15828343499590    2.76832753854256
H         2.03334478435030    0.53802482833096    1.17530684610851
H         4.35468771205396   -3.53021403942354   -1.76684385200221
H         2.54494127382503   -3.20245249029160   -3.41496642042572
H         0.84492851858590   -1.47656565792762   -3.04439664035185
H        -0.04571458054192    0.21210782509032   -1.95798328164794
H         0.15056800759153   -0.72207386344394    0.88891115163279
H        -2.28534573440477    1.00804061923057   -1.31636879756388
H        -4.46960455711666    0.11460638784777   -1.96507466066882
H        -5.18176735200647   -2.11273154104325   -1.16789245966742
H        -0.14171679993268   -2.62312195001623    1.05891281419949
H        -0.90149376287382   -4.79060201829859    1.82048752252652
H        -3.20006726725417   -5.56048847163122    1.36441148250306
H        -4.72985837599646   -4.13868123766614    0.05292540234540
H        -4.41492894349162    1.08126472295074    1.25017831449649
H         0.91269269909142    2.66904084988537    1.01588253353945
H        -0.84251174004077    5.26299503303718   -0.16898170960527
H         1.19498687838828    4.48794232843290   -3.17937577303566
