78
 energy: -117.623821986908 gnorm: 0.000252466473 xtb: 6.3.3 (4ae9cef)
C         2.31612869394977    2.01832773910098   -1.38944712639057
C         2.76054314638401    2.40621790095013   -2.64071785788605
C         2.07184485825662    2.01341356586320   -3.77489703419785
C         0.93175810561730    1.23648779034079   -3.65459934503091
C         0.48701091140558    0.84829376343657   -2.40489854859161
C         1.18253713335595    1.22877528547484   -1.26329378233279
C         0.68043519806760    0.82356057378667    0.09852694230190
C        -0.67831442207173    1.49463889774058    0.41884806530572
C        -0.56453195986083    2.43371784421936    1.59759934492049
C        -1.00141914539511    2.10024546018821    2.86927782368396
C        -0.84879729067487    3.00055891381200    3.91116898133988
C        -0.25527395246293    4.23073990821885    3.69337995858655
C         0.18701516732711    4.56489534320272    2.42365113815453
C         0.03060116839457    3.67194286436680    1.38053147979844
N        -1.60219190331024    0.38813716992764    0.58551537870963
C        -2.94173301810412    0.57794868056591    0.40328299490919
C        -3.74991396960543   -0.68113759657890    0.45563688263423
C        -3.98802217915049   -1.42413993629410   -0.70153239899375
C        -3.45846571229279   -0.96052382672608   -2.03988399605164
C        -2.66102671060469   -2.05175797771352   -2.75878925731848
C        -4.62312845028924   -0.47926503602533   -2.90890844519441
C        -4.75667818120617   -2.57718448977443   -0.59684535564557
C        -5.27221567812972   -2.98245242891315    0.62059294577858
C        -5.03922229502112   -2.23106805065072    1.75969600930556
C        -4.28107720659345   -1.07809044798271    1.67600940255362
O        -3.40635090282451    1.68184918884198    0.22399695643330
C        -0.94773561740558   -0.88536936090753    0.63460881979349
C        -0.99851940443961   -1.55033597770580    2.04741554473508
O        -0.45629797234579   -2.74597041196493    2.10545124340508
O        -1.52950426893502   -1.02027895443508    2.98050010665391
N         0.41037210202209   -0.60463163611316    0.19216641811476
C         1.24514442809785   -1.59346119505991   -0.17693083438664
C         2.58450630164953   -1.18292072825165   -0.68043005785159
C         2.83185680049607   -1.27169329248029   -2.04485185457988
C         4.05815659833239   -0.89255667386696   -2.55394112972520
C         5.04552726517747   -0.44762574942914   -1.69197436135952
C         4.81446066386006   -0.40978437549881   -0.32938368567466
C         3.58495203525905   -0.77737820699977    0.20412741841801
C         3.36479062629280   -0.83279175160533    1.69802634402610
C         3.98690574804125   -2.12676071801797    2.23421225691000
C         3.93019763344280    0.38363933030388    2.43235978762387
O         0.90400850770685   -2.77385391003442   -0.09917588192393
H         2.85579949373750    2.32452919593113   -0.50531606577286
H         3.64716022300973    3.01562242771610   -2.72882697353912
H         2.41989998314660    2.31474983832777   -4.75129490567780
H         0.38731725015998    0.93389402311401   -4.53662216907610
H        -0.40094337709893    0.23902036250838   -2.31399269624335
H         1.41747266378680    1.10545175694373    0.86058182937310
H        -1.02544158696515    2.08685924211255   -0.43990893547938
H        -1.46135169359194    1.14248659404986    3.05119887034055
H        -1.19760072349656    2.73428362341203    4.89761888296903
H        -0.13920022522692    4.93036228214764    4.50791346267860
H         0.64802539548997    5.52518292418049    2.24453212155193
H         0.36753237481213    3.93395648775295    0.38684090477508
H        -2.79843285656376   -0.10135096083239   -1.87162492466173
H        -1.85223442665895   -2.43099328501331   -2.13509880578671
H        -2.22832722028625   -1.65391449971952   -3.67484191652321
H        -3.30053990293713   -2.88891478005191   -3.02526538868920
H        -5.32431998286372   -1.28932256762680   -3.09447791163551
H        -4.25559897614017   -0.11184106495335   -3.86471946303548
H        -5.15064568482494    0.32767827579795   -2.40610942517736
H        -4.95895558900467   -3.16662121462997   -1.47851219587195
H        -5.86360091981241   -3.88437837231737    0.67831994246963
H        -5.44610778026236   -2.54040968429116    2.71007638558784
H        -4.08928716817697   -0.48299094184737    2.55517121544415
H        -1.42087613942841   -1.60889252183120   -0.05335675751105
H         0.00273633706576   -3.00330241736195    1.25260967585804
H         2.05300290227959   -1.62802601883628   -2.70203359487518
H         4.24228926623416   -0.94761012719868   -3.61567979485567
H         6.00673544370308   -0.14627738660453   -2.08093787956054
H         5.60741175908292   -0.09329432946283    0.33015647905700
H         2.28929106091469   -0.87992450737528    1.89919076884895
H         5.05879805927040   -2.13899196140241    2.05017144708207
H         3.81434135465923   -2.21023885523240    3.30442346142848
H         3.54242307477970   -2.98938004097646    1.74293962878969
H         3.59460455815016    1.31072285750553    1.97091242081591
H         5.01684813732119    0.37283234443767    2.43356878687996
H         3.59344406346707    0.37668281433509    3.46631122906497
