72
 energy: -161.989967370393 gnorm: 0.000342003847 xtb: 6.3.3 (4ae9cef)
O        -3.07053060398493    1.69123888444122   -1.03270230295282
C        -2.27730650719879    0.84289570607464   -0.70903210806799
C        -2.56205837299144   -0.63426206435400   -0.69612586759053
C        -2.78629984209808   -1.24412069911863    0.53137358437563
C        -3.00644812525207   -2.61232526611345    0.59343108584036
C        -3.25180077244968   -3.22683296841118    1.94769820483828
F        -4.47156060388654   -2.90432483073973    2.41774671409706
F        -2.37602501194039   -2.76863208372794    2.85902759401618
F        -3.17770031664837   -4.55472512430129    1.95496811077684
C        -3.01052684077597   -3.38257262435797   -0.55841158939815
C        -2.81695501372345   -2.75423718236263   -1.78079590124932
C        -2.86817551528183   -3.58339700291386   -3.03919698437111
F        -2.27360261413338   -2.98781214828561   -4.07769040897368
F        -2.29008425390058   -4.77924830206265   -2.88679759961764
F        -4.13880659597294   -3.82254908338243   -3.41548602782738
C        -2.60452516726035   -1.38537044171260   -1.86179093191733
N        -1.01214117894638    1.13922244079293   -0.29437198683532
C         0.00321015023692    0.16482573578913    0.01674491565391
C         0.30935421220929   -0.70140287094864   -1.24037652135974
O         0.48370798404874   -0.01147834414958   -2.35648993440604
O         0.37279643406505   -1.89481917099788   -1.19309370146057
N         1.13870917953386    0.96138385981911    0.42026719270975
C         2.31038102321437    0.48961714907021    0.93672776119835
C         2.47689049471001   -0.99454006092293    0.76024646922648
C         1.76283542344613   -1.91765171182284    1.50997793062885
C         1.86897968038287   -3.26885066208566    1.21202170934410
C         0.98627710565310   -4.23443887825853    1.95874715824917
F         0.93577659940489   -3.96721810261028    3.27109037282603
F        -0.28368672113269   -4.16123136782256    1.51161965011004
F         1.36641307350459   -5.50605082213519    1.83280887308695
C         2.69593508875815   -3.71679611420412    0.19420321970915
C         3.44780724837061   -2.78716494391148   -0.50783790875075
C         4.39356024369258   -3.23975902664330   -1.59063710824298
F         4.06705072265536   -4.42703589885250   -2.10622707582341
F         5.65238589176859   -3.35555789375551   -1.12967669562539
F         4.44738818250549   -2.37013739621691   -2.60952294979034
C         3.34504375720740   -1.43236030725562   -0.23148719180964
O         3.14796423017718    1.21935414879473    1.40559482644847
C         0.87212428841112    2.39441867865468    0.40147751940860
C         1.74704243396897    3.15543015977273   -0.57032596679306
C         2.49149795301578    2.53462495587559   -1.56217341823180
C         3.26304061791965    3.28843749606635   -2.43152157233730
C         3.29061596391160    4.66665516148404   -2.32237714573960
C         2.54546386021384    5.29259868655908   -1.33617074651875
C         1.77968832390554    4.54161869779730   -0.46469291105013
C        -0.62397873805846    2.50898410047093    0.03988927869154
C        -1.46531845173359    3.04052810226622    1.17437955784140
C        -1.57369559951352    2.32110961608214    2.35852096710511
C        -2.35157432281974    2.79941117105050    3.39670992649894
C        -3.02302833458918    4.00305452944020    3.26146523120263
C        -2.91487629033033    4.72472200242672    2.08542942761216
C        -2.14112128048946    4.24419898439104    1.04345890115685
H        -2.79667033462278   -0.65444409462334    1.43728475651016
H        -3.15540099758485   -4.45055426219602   -0.50462254128217
H        -2.45732019863386   -0.91466161728965   -2.82216936534307
H        -0.30677214492162   -0.53030165361651    0.81411365841889
H         0.40030838298423    0.95009960232889   -2.23820585164085
H         1.12448619261396   -1.60049349849690    2.32182899523195
H         2.75123282554844   -4.76683895814595   -0.04858000125843
H         3.92613954852328   -0.71749324888330   -0.79536685757136
H         1.05495726218010    2.79315604906419    1.40744440987403
H         2.50531080906463    1.45796579986626   -1.65206231470075
H         3.84477524331733    2.79113275113413   -3.19252943443354
H         3.89559531656891    5.25135125898292   -2.99802294095451
H         2.56734414847119    6.36742884200876   -1.24059928027679
H         1.20433662904085    5.02702827752167    0.31026963437677
H        -0.77021592541825    3.14581091834192   -0.84118182316594
H        -1.04700488995546    1.38348239626988    2.47239900185272
H        -2.43368494872624    2.23168091486320    4.31122597599308
H        -3.63114206574798    4.37531353804881    4.07163977732117
H        -3.43906111593397    5.66165031745146    1.97497432420706
H        -2.06732582857904    4.80125579472943    0.12154725092292
