72
 energy: -140.532041930680 gnorm: 0.000801979311 xtb: 6.3.3 (4ae9cef)
C         1.57501420194261   -3.47354712785208   -0.58393212110258
C         0.61132824583043   -3.87450601434600   -1.66501420020636
F         0.61418573302312   -3.05650604892843   -2.73316767373220
F        -0.67086302489283   -3.89178040365526   -1.22887406145095
F         0.84140202915687   -5.10168232225694   -2.14691427615868
C         2.54330821436321   -4.38921261363468   -0.18934502870551
C         3.43623915226218   -4.07096806620422    0.81499105909967
C         3.36009652834494   -2.83601462901820    1.43435136930541
C         2.39525064498700   -1.92842205425826    1.04594119924826
C         1.49319251226480   -2.22395541575605    0.03015608700997
C         0.45770327064847   -1.19466050100536   -0.33510128257771
C        -0.57607501698209   -0.96401149494544    0.79188884524897
C        -1.79536592719923   -1.83619342578935    0.64492328859501
C        -2.10000448596593   -2.86919120482369    1.53178219424697
C        -1.20749974268477   -3.18436465773125    2.69891451260358
F         0.04078499475874   -3.53895120273443    2.30885613666753
F        -1.65215759580288   -4.20369421046737    3.44283885741313
F        -1.03640509203502   -2.15712627265960    3.55100337759511
C        -3.23293559916096   -3.65097363502558    1.33936388525351
C        -4.07042135526408   -3.41362879531308    0.26736819208752
C        -3.77147394073300   -2.39816886925452   -0.62359590654672
C        -2.64352385685403   -1.62453714377806   -0.43625848374962
N        -0.89175992004482    0.45366192569992    0.64690178511338
C        -2.03428206622168    1.01773760654512    1.12661403476555
C        -2.20695702563199    2.43980758717776    0.74043254208131
C        -3.18015756379032    2.89719206920232   -0.11091363959667
C        -4.24051401010406    2.16693233505071   -0.85252645144808
O        -3.08239430644117    4.23098608656174   -0.24450461655858
C        -2.06845825684758    4.64292402445039    0.53875975012569
C        -1.48363749134431    3.59358407345312    1.17957990716551
C        -0.36435127514158    3.64518262754375    2.16303070944893
O        -2.84646936574164    0.38995278251465    1.77083229450506
C         0.09891747168815    1.15094936868536   -0.13380246997288
C        -0.49041844091502    1.76846409547201   -1.41918285957045
O        -1.25336717805399    0.90364627304131   -2.08353140156588
O        -0.23725302245997    2.87207563883790   -1.81280931917249
N         1.05735233365277    0.12681103633630   -0.47256794004541
C         2.22080226314486    0.33664368943678   -1.16240888923605
C         2.68990621682607    1.73905288033488   -1.13783664424082
C         2.83861373043895    2.57361661194955   -2.21321120409794
C         2.51610841303529    2.37113691896313   -3.64736467881652
O         3.31835997811877    3.76122650719704   -1.80910809650323
C         3.50528384373243    3.69238897702288   -0.47761056989182
C         3.14015722986875    2.47441941158311    0.00688502263959
C         3.27287669408678    1.97746113064632    1.40504161016637
O         2.81668962007174   -0.57052435987074   -1.70054407077365
H         2.59495467714931   -5.35168254991246   -0.67379916602057
H         4.18657975532191   -4.78662899443916    1.11203611748766
H         4.05170203374030   -2.58028175413005    2.22250757582748
H         2.34199325466480   -0.96529723593986    1.52990672383879
H        -0.06581531744131   -1.45623169329388   -1.26068177515069
H        -0.09425327978159   -1.11525076732841    1.76350086651416
H        -3.45647774994125   -4.44493756926635    2.03459628426535
H        -4.95050362555800   -4.02178964142808    0.12933564569248
H        -4.41775535204966   -2.20937600303487   -1.46738200785526
H        -2.41504640810379   -0.83309652730579   -1.13286504085680
H        -5.21371788351326    2.59808343383202   -0.62393047093330
H        -4.08736656704114    2.24367610660532   -1.92907456085293
H        -4.23690701332863    1.12255926273279   -0.55365975088468
H        -1.85870737445292    5.69313032763655    0.56020752871214
H         0.57738893982733    3.88340243592250    1.66701787489932
H        -0.55341846058037    4.42270707357780    2.90042043009369
H        -0.26992261874615    2.69426935839635    2.68205452208071
H         0.57341360807110    1.97029751688669    0.42058877912581
H        -1.56836106913369    1.28419600008140   -2.91999222923818
H         3.28268518541265    2.82909811534662   -4.26809244172762
H         2.46050705844767    1.30738176082820   -3.86157849613801
H         1.56063743357073    2.83997092801371   -3.88445855302322
H         3.90688709293593    4.55866295650701    0.00898191961488
H         2.32659398446695    1.60505870865956    1.79490904023721
H         3.62425237972606    2.77782468194607    2.05123246858625
H         3.99382455441261    1.16102788070604    1.43788194103398
