72
 energy: -124.428203140541 gnorm: 0.000375545115 xtb: 6.3.3 (4ae9cef)
C         2.13570483048053    1.58800834415311   -0.59577562492498
C         2.70647292616290    2.82464579538246   -0.67866099649884
C         2.70339556530059    3.70031355377787    0.42772083243580
C         3.29147236893045    4.98066449838140    0.37538232816553
C         3.27096451005877    5.80321571533723    1.46692763068484
C         2.66009781550584    5.38388760905803    2.65917023181726
C         2.08097115026211    4.14865258895228    2.74117239740862
C         2.08848445862443    3.27517900491559    1.63393621367906
C         1.51410725795338    1.98949426259230    1.69245802177073
C         1.54163827221220    1.15678544169729    0.60745893357805
C         0.91541550146612   -0.21135513875467    0.66670627756570
C        -0.36708436476478   -0.28163557512514   -0.18581331703765
C        -1.61935288062481   -0.19155949193003    0.64249323567281
C        -2.44589378232196    0.89526674025432    0.54206064018776
C        -3.64461536140297    0.96766709510311    1.27856399499721
C        -4.53692875994805    2.05206480159521    1.14873477072015
C        -5.70806631372982    2.07774733304177    1.85247170102334
C        -6.03615866125414    1.02719224523966    2.72410377169459
C        -5.18977293986728   -0.03521987727064    2.87521937783455
C        -3.97891534143203   -0.09701127813717    2.15536432842041
C        -3.09538370099638   -1.19188767417867    2.26242325662162
C        -1.94857856355056   -1.24034272751310    1.52413512774502
N        -0.25221919371397   -1.55565596419216   -0.87987880931714
C        -1.11014641731690   -2.04221114591070   -1.81057975216794
C        -2.43960434951330   -1.35708746591426   -1.85493011342488
C        -2.60627591365023   -0.19958401221116   -2.60285899876547
C        -3.83781150445321    0.43168025752773   -2.62513104340879
C        -4.90220016338581   -0.08172002045165   -1.90454254789924
C        -4.72780993991710   -1.24968103103923   -1.18549430146369
I        -6.34685725253330   -2.05166389390192   -0.09498940434875
C        -3.51109859912890   -1.90223437714464   -1.16083083645018
O        -0.80833307665374   -2.98132226226569   -2.51854885263457
C         1.08785490360649   -2.10361355941224   -0.82251969395001
C         1.68105004075494   -2.09053151450616   -2.24816443520775
O         2.09532803015249   -3.28610530551973   -2.62939910353668
O         1.74554266019361   -1.09606954918906   -2.91698971562169
N         1.78233102948376   -1.23280090840357    0.08824764845977
C         3.09745627457866   -1.30124195436699    0.41844040878881
C         3.87597983628760   -2.30911169884423   -0.37165477126022
C         3.81204734404995   -3.66117227947331   -0.06549160411313
C         4.55380560908622   -4.55493500459044   -0.81401422451077
I         4.44310889858710   -6.61694749971881   -0.36554217932056
C         5.35913143452643   -4.12590641400108   -1.85340394014552
C         5.43203300582635   -2.77272864818412   -2.13795415132533
C         4.69789877219833   -1.86195570863422   -1.39881159890654
O         3.59839470430805   -0.58936399978673    1.25919712166043
H         2.14396364691124    0.92421041448140   -1.44944997750952
H         3.17253281635419    3.15029861665430   -1.59773981706050
H         3.76179572626463    5.29888135659750   -0.54424765615836
H         3.72599207139924    6.78183724191824    1.42112059664219
H         2.65387324857253    6.04687743658107    3.51194896766042
H         1.61177945369503    3.81996982655597    3.65742308322980
H         1.05853759313131    1.66482044612161    2.61727058675031
H         0.69989832543719   -0.47136609503836    1.71193894992830
H        -0.35587124310658    0.53688566998072   -0.91916761443965
H        -2.19603594242509    1.70830196348082   -0.12522857189811
H        -4.27753250923003    2.85724200084234    0.47618268427463
H        -6.39107717254975    2.90718563672096    1.74305330739445
H        -6.96666725230658    1.06358976827711    3.27016005228411
H        -5.44228283570782   -0.84986483124452    3.53785221277160
H        -3.35130155704515   -2.00012496481757    2.93200849251986
H        -1.28690538067815   -2.09169750823708    1.59552822756807
H        -1.77548861407535    0.20044113178666   -3.16483795791390
H        -3.97245921610803    1.33332244065437   -3.20320201793021
H        -5.85732463616803    0.42008552330954   -1.90965831586360
H        -3.38348490029154   -2.81801586633700   -0.60477697789103
H         1.05988494453363   -3.15002166144595   -0.47844711510091
H         2.36583270314775   -3.28598093719684   -3.56207720992466
H         3.19629354426121   -4.00493004875762    0.75192704040708
H         5.92897721381018   -4.83585881827024   -2.43276188394421
H         6.06663225308446   -2.43027390991015   -2.94133630666099
H         4.75285959693788   -0.80561614277176   -1.61389701078019
