92
 energy: -151.471476541195 gnorm: 0.000538399157 xtb: 6.3.3 (4ae9cef)
C         2.01721286570880    0.50637854945713    1.38372864297052
C         3.29189366603239    0.50664939725940    1.87217541152300
C         4.21977816656566   -0.48015926971038    1.47852938414022
C         5.55873458665499   -0.47313157389689    1.91907211193326
C         6.43469939632785   -1.43555932454560    1.50240350603008
C         6.01065228888785   -2.45316530940744    0.63428124317491
C         4.71734564059216   -2.49276386421851    0.19643922729818
C         3.79137370512107   -1.50889266287757    0.60005019485092
C         2.46584637345795   -1.49033895430828    0.12413916649347
C         1.60087631642274   -0.48823741254716    0.47675211987879
C         0.22714749662702   -0.40954152680653   -0.13241959857640
C        -0.91187973325670   -0.67163875674388    0.87646337766765
C        -1.44018073990378   -2.07430647710190    0.74919029666429
C        -1.21467750622766   -3.00821371994586    1.72288155876327
C        -1.68858492678245   -4.32864758759968    1.58555431777523
C        -1.47552914855420   -5.30640697436150    2.57944227120647
C        -1.95571729281401   -6.57650043253373    2.42349486630293
C        -2.66859785876106   -6.92869968714234    1.26671068969765
C        -2.88933632728042   -6.00442755317448    0.28415441500801
C        -2.40827180658144   -4.68584554337564    0.41575981191227
C        -2.62022552507225   -3.70532559112716   -0.57615261464803
C        -2.14411104019755   -2.43710589912427   -0.41639061219166
N        -1.91686921593995    0.31797859734104    0.51226963297618
C        -3.15025568972626    0.32399686583769    1.10145666115068
C        -4.00382435453283    1.46570451769349    0.68539161928140
C        -4.69931995568075    1.59342020630649   -0.48827997087504
C        -4.79232448605014    0.69556809678797   -1.67002274655216
O        -5.39093227563921    2.74886119872298   -0.48920985589369
C        -5.15305362337559    3.38119166286644    0.68903017322009
C        -5.78793611440169    4.65848996412443    0.94423002478195
C        -5.52516461387449    5.36342640861104    2.12001248490419
C        -6.14145628184704    6.57629319445429    2.35638445843064
C        -7.02498723600758    7.10647657601471    1.42940740245184
C        -7.28878646117620    6.41506996625619    0.25843694978284
C        -6.67689091839109    5.20115728074285    0.01483578219018
C        -4.30412729851320    2.61988350689192    1.45126591925511
O        -3.51702698500493   -0.56099087197431    1.83902234751925
C        -1.30634908782124    1.45266932923353   -0.11581443221201
C        -1.03377533513342    2.60501620144191    0.90595360033423
O        -0.56219641671132    3.70921270410576    0.36912999156030
O        -1.25001493544007    2.46623258296174    2.07530926576768
N        -0.06221490911681    0.92381811189129   -0.64957323578487
C         0.68014013622424    1.61317576169479   -1.53672655157763
C         1.88198688497496    0.90882345988817   -2.02368669924117
C         1.96423618046151   -0.16656920787221   -2.86885841889906
C         0.92343306688527   -0.88178121064730   -3.65276437909840
O         3.24412837238113   -0.56360378551240   -2.97652706563434
C         4.00673570416192    0.24499923846036   -2.19931894708456
C         5.42013628752354   -0.04053657567766   -2.05849312016597
C         5.97931548466582   -1.14335808219417   -2.70516167947056
C         7.31536990789502   -1.44852737707150   -2.53813279681963
C         8.11391553823788   -0.66030626871047   -1.72618314623607
C         7.56785769487467    0.43945514552029   -1.08436996904742
C         6.23248376574015    0.75035856135496   -1.24588564893214
C         3.20958223231745    1.18950326948427   -1.60790631688932
O         0.37640494513562    2.75716045898492   -1.86835958701816
H         1.32120053414346    1.27720523969680    1.68166483383911
H         3.61046685304186    1.27622086250087    2.56018198507763
H         5.88045680574604    0.31169783318863    2.58841803596394
H         7.46104606475678   -1.42071534107790    1.83750232836733
H         6.71787986133236   -3.20319446679348    0.31327919817778
H         4.38603020325771   -3.27235764030871   -0.47419691164000
H         2.14792194848015   -2.26938842511653   -0.55514789372568
H         0.15231025690621   -1.13522607409895   -0.95205818806279
H        -0.56734640748309   -0.49334398922476    1.90380558947681
H        -0.67697260625489   -2.73863798251711    2.62036761511870
H        -0.92882962064946   -5.02949397466348    3.46926932603422
H        -1.79225937440442   -7.31945356097667    3.19036527633655
H        -3.04251416531041   -7.93663490728833    1.16126439506524
H        -3.43924094251838   -6.27046641845429   -0.60758546458334
H        -3.17046148555034   -3.97668927166155   -1.46619494758602
H        -2.31569975303826   -1.68928137286137   -1.17869778126750
H        -5.81513318721613    0.67579597805796   -2.04011633939363
H        -4.14971648961903    1.04537942212049   -2.48026343041035
H        -4.49342145251745   -0.31001711903881   -1.38628647468748
H        -4.83572705093093    4.95727420044264    2.84277145833417
H        -5.93223729668323    7.11382920605490    3.26959367038320
H        -7.50524696864152    8.05494393575302    1.61914893233160
H        -7.97603060292362    6.82457129502666   -0.46765560964449
H        -6.88213809026530    4.65939887594320   -0.89602651869818
H        -3.92027155202088    2.83267151491528    2.42638260459264
H        -1.92758005895707    1.85792152605056   -0.93070603294426
H        -0.29715389641567    3.58519532994851   -0.58818588670738
H        -0.03035023711866   -0.37215608999079   -3.55326630810365
H         1.20186176878515   -0.90927803409651   -4.70496289219836
H         0.82029649065100   -1.91208485643543   -3.31103714934269
H         5.35349285719530   -1.75721190325505   -3.33464932563899
H         7.73682374519170   -2.30577599514772   -3.04223788439949
H         9.15817409586842   -0.90139116662938   -1.59438251797258
H         8.18799020488180    1.05680770710295   -0.45166655365188
H         5.81237878020597    1.60462698059698   -0.73985983858910
H         3.50333516337492    1.97286836842728   -0.94195283247226
