66
 energy: -138.770522709508 gnorm: 0.000268724334 xtb: 6.3.3 (4ae9cef)
C        -2.44917095140098   -3.01215917699189    0.32452918595397
C        -1.50288931546857   -3.85791677000663    1.13084800467614
F        -0.34753409993960   -4.10491588426528    0.47042181920932
F        -1.13863378026550   -3.30396197281429    2.29952070151884
F        -2.00559377037432   -5.06005347849736    1.43643546160032
C        -3.69264772570726   -3.53767579232639   -0.00415170571140
C        -4.58171737723288   -2.80295145966918   -0.76449912381328
C        -4.22758664802418   -1.54041054048813   -1.20587232091911
C        -2.99096205718254   -1.01897946228171   -0.88081308683281
C        -2.08623150090191   -1.73696510167430   -0.10744090223965
C        -0.74993506550996   -1.11249294147325    0.19952562641621
C         0.14268823055215   -0.98833184135398   -1.05267864071559
C         1.15252157705775   -2.10419129165548   -1.14358079328886
C         1.09423075518649   -3.09820607150196   -2.12041914460688
C        -0.00646634740394   -3.11913506071188   -3.14316992481555
F        -1.23357130883885   -3.21089796409243   -2.57476756953577
F         0.07602111989354   -4.15378125594623   -3.98642970971091
F        -0.05581426710518   -2.01858650372102   -3.91626598890487
C         2.04399953998472   -4.11196531747103   -2.14833144006503
C         3.05401606863482   -4.14538656470772   -1.20653839303886
C         3.11253949160642   -3.16979245612667   -0.22709993693677
C         2.16815146954080   -2.16212279652681   -0.19597724293830
N         0.78735943924293    0.31035347656433   -0.87754631433518
C         1.89593260576640    0.66741260629411   -1.58206498418866
C         2.46097421386827    1.99870874154834   -1.18689226588555
C         1.83691596791882    3.18485201390714   -1.55540913967343
C         2.38157423104099    4.40180361396123   -1.18953398362771
C         3.55441063491343    4.41050282276979   -0.45546077221969
F         4.07881830729220    5.59162751375865   -0.07830313706539
C         4.20626968572584    3.24355840598103   -0.09832905802914
C         3.65546515131503    2.03250048236687   -0.47674676274906
O         2.38402505856789   -0.03813659057911   -2.43321118757052
C         0.17032863333125    1.10134165718972    0.15829242562157
C         1.17069628133408    1.38131385789212    1.30200313384314
O         1.18462884562693    2.66772012037130    1.63452651993625
O         1.82960503177606    0.53724313206641    1.83865151461161
N        -0.91554551151830    0.27449545619497    0.62786828903900
C        -1.76980956750321    0.57917894593449    1.65004283809262
C        -1.77012185580435    2.01419988127215    2.06953138834004
C        -2.14603283398132    3.02281050957880    1.18935754376405
C        -2.17392439541373    4.33950445223545    1.60918019340016
C        -1.82074799097724    4.62851369006285    2.91552011905632
F        -1.83033966853900    5.91055292958899    3.32379473169512
C        -1.46588106217317    3.63977081969188    3.81574465029647
C        -1.45316258122943    2.32547851655193    3.38659445507709
O        -2.48843568524083   -0.25326696669785    2.15321611487684
H        -3.96095177594761   -4.52478089521034    0.33814719623043
H        -5.54581017854657   -3.21804770592966   -1.01257886555101
H        -4.91390133047329   -0.96198035617089   -1.80531072547036
H        -2.71823625824879   -0.03211858237343   -1.22464220447831
H        -0.21790208221435   -1.66367078114930    0.98171392019627
H        -0.48144739073807   -0.94137633162980   -1.95088193071000
H         1.98812749837247   -4.87378868237093   -2.90999157128646
H         3.78904785309919   -4.93431330793347   -1.23747933755542
H         3.89340130903549   -3.19346413320544    0.51752919321341
H         2.22076870182693   -1.40353758982595    0.57116354991265
H         0.93297256644524    3.15785628612882   -2.14539936209472
H         1.91494907566070    5.33368394156986   -1.46538961566953
H         5.12859066996782    3.29214204937787    0.45830171085770
H         4.14660001181134    1.10692503343007   -0.21860449954468
H        -0.19277279967962    2.06940714300424   -0.21484694152099
H         1.79905079194154    2.83885685050924    2.36836820263606
H        -2.44294642071144    2.77709456845095    0.18042979284088
H        -2.46723650379710    5.13647502443778    0.94472279847323
H        -1.21562108032868    3.90286239647763    4.83109554042541
H        -1.19509862991517    1.53061568821404    4.06958596149076
