72
 energy: -111.288234697379 gnorm: 0.000296541171 xtb: 6.3.3 (4ae9cef)
C         2.93105401420744   -1.78506675679977    0.58523832583969
C         3.95727128981591   -1.97034243489321    1.49456548794663
C         3.96838424798241   -1.26134235306971    2.68246871218725
C         2.94144679340790   -0.37616459133257    2.96538510421139
C         1.91462402164298   -0.19130637199027    2.05905127177914
C         1.91223324648731   -0.88380335276511    0.85379814724219
C         0.78435728710401   -0.69750727416621   -0.12407955183203
C        -0.53004628038651   -1.29186493898499    0.43367025727724
C        -0.76257436020345   -2.68998918281162   -0.07143797433129
C        -0.52586246366845   -3.78019698833385    0.75235430047017
C        -0.70576615831438   -5.06641710065712    0.27529916823328
C        -1.12461530619224   -5.27278432445995   -1.02763262333095
C        -1.35746873421018   -4.18780831160648   -1.85573421750199
C        -1.17055614642971   -2.90258693026070   -1.38191734719574
N        -1.55152669665597   -0.36425544541990   -0.02885174000348
C        -2.86842962489078   -0.60621768303106    0.23948421751842
C        -3.80929611439160    0.40243850275672   -0.32653648600925
C        -3.90483422532393    0.57191055896855   -1.70210415958084
C        -4.80420585799095    1.48665376145165   -2.21775939153511
C        -5.59092484120282    2.24184444511984   -1.36759401806527
C        -5.50914941624150    2.07870745974531    0.00941523609165
C        -6.31480174816633    2.94866099936369    0.92908374808753
C        -5.62570658606960    4.30541647858516    1.09051452556453
C        -4.62380848721290    1.14062959280109    0.51907668665324
O        -3.22140892691262   -1.59103567477953    0.85296599053836
C        -0.98831522180472    0.90869582296691   -0.40480861892087
C        -1.38728091989323    2.03973664373218    0.56825441756619
O        -0.93116415946850    1.79428045048129    1.80372764986674
O        -2.13577550764578    2.93454519681257    0.30112366942526
N         0.44311763476581    0.69214369910979   -0.37304128929877
C         1.23010587927214    1.78823073482359   -0.25192446923819
C         2.69629503166351    1.57321790048582   -0.35273718263417
C         3.23235640461878    0.88601210569670   -1.43348395719016
C         4.60486050544880    0.72337905746692   -1.55973821231235
C         5.17613496699178   -0.02088798523827   -2.73338029508734
C         5.03668876513103   -1.53244146019187   -2.54804677991175
C         5.43165253093324    1.23912739461840   -0.57000620891880
C         4.90407886068949    1.94128014809042    0.49974276325981
C         3.53907719118296    2.12794431921696    0.60271250222888
O         0.72087765471631    2.88946593552578   -0.11550405985498
H         2.91959203493800   -2.34605638691819   -0.33739562184750
H         4.74876915814814   -2.67102419710190    1.27428825934164
H         4.77175519924271   -1.40202361370385    3.38990217254627
H         2.94063768706855    0.17080408120569    3.89639268845201
H         1.11573481383795    0.50191753313034    2.27906999891886
H         1.02794855587079   -1.19361646923079   -1.07462726410875
H        -0.50547179518474   -1.29959658267240    1.53201847805007
H        -0.20574877481272   -3.61952515501531    1.77137116418888
H        -0.52476290372600   -5.90966724349412    0.92518257362353
H        -1.27345349163836   -6.27658508968890   -1.39689593888128
H        -1.68710042086348   -4.34340494095706   -2.87253547635406
H        -1.35603593144124   -2.05600567188583   -2.02785385146140
H        -3.29259778752080   -0.02458194361873   -2.36361793075775
H        -4.88627829756957    1.61574047364714   -3.28713242663539
H        -6.28053129833940    2.96618303324498   -1.77665486869576
H        -7.31777569918819    3.09661585798435    0.52262364729058
H        -6.40847127208611    2.46887779736279    1.90506703230211
H        -6.15685870003337    4.92123627825913    1.81292414779311
H        -4.60092882687847    4.16698616368242    1.42587999051302
H        -5.59608722408631    4.83001639343496    0.13883020294472
H        -4.55173386147683    0.98652662726602    1.58636891471427
H        -1.31445070566038    1.22579990830814   -1.40849625655577
H        -1.19275283462368    2.51560187965277    2.39727572002434
H         2.57599243182296    0.49710935151454   -2.19898523399606
H         6.23182582918863    0.23107897147739   -2.84764202457731
H         4.65511162770234    0.27786570467056   -3.64566840816652
H         5.50230154085623   -2.06022287822720   -3.37701393530412
H         5.51463407704899   -1.84483063351427   -1.62249529429932
H         3.98764999543146   -1.81500061325240   -2.50557746712674
H         6.50101920808735    1.10487159634634   -0.64799584593229
H         5.56180663908446    2.35299917981148    1.25048800626000
H         3.11516448399056    2.68961154127921    1.42044624852556
