72
 energy: -140.540249977934 gnorm: 0.000660075450 xtb: 6.3.3 (4ae9cef)
C        -2.79199020220955   -1.65805664975800   -0.30475297636299
C        -2.70277061885830   -2.50514011689890    0.93228837448424
F        -2.75680953575640   -1.79342553249418    2.07838792821819
F        -3.68736015616085   -3.40564623879170    1.02655736479727
F        -1.55270092483509   -3.20619411880301    1.00492064999234
C        -3.85215396945139   -1.88065212610999   -1.17612158191176
C        -3.94358563004223   -1.17305563076653   -2.35855900383640
C        -2.96230492431399   -0.25313857528223   -2.68406897667921
C        -1.91378811549445   -0.02123746989187   -1.81501053775588
C        -1.82032735418701   -0.70173305480107   -0.60471480081448
C        -0.64302197914888   -0.40515315126891    0.29276702780887
C         0.67400557969675   -0.91085097133055   -0.34901961816536
C         1.15685990505888   -2.20838776201407    0.24564978432013
C         1.13434883465650   -3.42180631942535   -0.44164735693359
C         0.58777545874263   -3.51683333129690   -1.83918938466666
F        -0.70578169005497   -3.11908848242694   -1.91055017967323
F         0.60028784330128   -4.76705321304207   -2.32075150171109
F         1.24329957836615   -2.77058518643199   -2.74035629388481
C         1.59852001707948   -4.58143860335554    0.16678292665804
C         2.08398097902595   -4.54540923153634    1.45978542443645
C         2.10165423011787   -3.34831589653151    2.15335220724350
C         1.63995658011415   -2.19554746460326    1.54893357347787
N         1.62953770450460    0.15532364579065   -0.07155659651377
C         2.91783497031769    0.01851846983367   -0.51344611054123
C         3.78124809802362    1.19528689259988   -0.31851602452136
C         4.59576004133811    1.74020270822503   -1.27676442862280
C         4.78393433790723    1.37942357534005   -2.70351246944911
O         5.26439679667534    2.79151031381684   -0.76444765099078
C         4.91328770960331    2.91704681299325    0.53749015519772
C         5.54014058883320    4.00034681501644    1.33785975931096
C         4.00035395523467    1.96423704729582    0.86384882673099
O         3.30353988603195   -1.02214457319299   -1.00552730256792
C         0.96498193502379    1.40069736476590    0.20346249666655
C         1.03051722517589    2.38183383619694   -0.98890204330467
O         1.72261481612136    3.47351268895582   -0.69878538048776
O         0.59355765857228    2.12037056830700   -2.07761592218815
N        -0.41350451465008    1.02443353304729    0.44145484967480
C        -1.33401282887874    2.02697467021466    0.38736491698363
C        -2.70610795875128    1.65588324682323    0.77065312270343
C        -3.11389490218276    1.21922477414377    2.00321133179352
C        -2.37041330264994    1.04040823035612    3.27685091815529
O        -4.44545856017429    1.01640609153925    1.99478760647149
C        -4.90928506841139    1.32237649994441    0.76038077400822
C        -6.35977460178031    1.15257290124319    0.48813374533616
C        -3.88380436966658    1.74069368598984   -0.02832569779022
O        -0.97609871289183    3.15666894778364    0.10399244438945
H        -4.59876003792387   -2.61871231221297   -0.92841541948879
H        -4.76981431717387   -1.35384996433359   -3.02803470591768
H        -3.00878767560022    0.28560171614634   -3.61788692591963
H        -1.15740968562767    0.70470510546190   -2.07649768247725
H        -0.76578895168986   -0.85284836529262    1.28516411054886
H         0.54718496388293   -0.99769349729478   -1.43367733896879
H         1.57893725383245   -5.51286536468064   -0.37693257060033
H         2.44547937914872   -5.45054457526650    1.92204305272536
H         2.47600556092999   -3.31190748287282    3.16517489810931
H         1.66294003466629   -1.25943707562924    2.08697131071258
H         5.83507714458726    1.45995706952391   -2.97240583251744
H         4.21441384821567    2.04703287793919   -3.35138999538187
H         4.44290702923873    0.36004377502268   -2.85994763991437
H         5.13949543104429    3.98845063726594    2.34662001608519
H         6.62047429962804    3.86626159529810    1.37986399777505
H         5.33931043404541    4.96995919875052    0.88450813992995
H         3.56920288310323    1.80060920345109    1.83019869257332
H         1.38139838788828    1.91319629918895    1.08209489450142
H         1.70607394956002    4.09617366928319   -1.44329933984329
H        -2.68144980074248    1.79590670624645    3.99872702451624
H        -2.57986323252185    0.06127842890029    3.70228243256457
H        -1.30414988977293    1.14349003690409    3.09847014037210
H        -6.57027544233746    1.41726163803155   -0.54318593076973
H        -6.65733109361462    0.11945453627355    0.66237008935436
H        -6.94873907864496    1.78725525925705    1.14885962309224
H        -3.93397620307201    2.05816126450925   -1.04844741058291
