74
 energy: -144.780430948404 gnorm: 0.000628710522 xtb: 6.3.3 (4ae9cef)
C        -1.67711196594813   -0.28144145671560   -3.26194249373065
C        -2.75095808199570   -1.28743477722280   -2.92796347225207
F        -3.52770970226613   -0.91317208824732   -1.90561884087932
F        -2.25518928584961   -2.50128333340333   -2.62822628203216
F        -3.58906101563235   -1.49485957400407   -3.96096468511911
C        -1.75992175578900    0.36416696962686   -4.48910006593816
C        -0.80771697277076    1.29500431278395   -4.85863812219930
C         0.23297227634560    1.57839024175650   -3.99533665607239
C         0.31509108345072    0.94168215354888   -2.76932339515160
C        -0.63300950773635    0.00306047174977   -2.37479735437726
C        -0.57836289515211   -0.63430118258949   -1.00494500221356
C         0.79729093706951   -0.51243368472375   -0.29800811552405
C         1.00882918569140   -1.69150463945081    0.62320759080450
C         1.65784036903683   -2.84818116851001    0.18304372834772
C         2.22416833415552   -2.93029894879754   -1.20657237107502
F         3.25225143327278   -2.06803748559292   -1.39774577743024
F         1.33339907613839   -2.63898592363035   -2.17216898956357
F         2.71441891687780   -4.13749464784742   -1.50597978155830
C         1.80939644877933   -3.94149867618929    1.02663702584062
C         1.30887029269764   -3.89899785617817    2.31392399244773
C         0.66303582867361   -2.75996271710051    2.76017629609842
C         0.51851729828791   -1.67018239501999    1.92286087729143
N         0.66278601449393    0.74214620207920    0.42194666146230
C         1.51166701559654    1.21957080045950    1.37269979124760
C         2.84568545153185    0.55281271042758    1.42987975615534
C         3.71748613825265    0.52587644214958    0.33203136663298
O         3.28542005187774    1.13431914830170   -0.80817216778132
C         4.16495077097406    1.20475096007336   -1.90860489361787
C         4.95138452265863   -0.10060527791262    0.46514451239095
C         5.31159985365692   -0.68786474897461    1.66522064295555
C         4.46372541430541   -0.64073735573839    2.75647083375166
C         3.24053308348673   -0.00819781556405    2.63571395692798
O         1.17518939484341    2.09985302473515    2.13768154889223
C        -0.71059623304210    1.22834050817570    0.35164239649728
C        -0.82997609307673    2.44121824416027   -0.58637310731607
O         0.28804411868533    3.16051905073592   -0.57825596938778
O        -1.80722103380336    2.74752574650830   -1.20692118994886
N        -1.45644365960331    0.08625188872500   -0.09192156778142
C        -2.28965582572393   -0.64024473031485    0.73506470049051
C        -2.98611969432463    0.16552551370939    1.77528227508637
C        -2.85982154603088   -0.18386718638603    3.11061728164248
C        -3.50717424070907    0.54504160200018    4.09280938606131
C        -4.30369025823718    1.61538053623772    3.72820330907218
C        -4.47301194405645    1.95328432847375    2.39654295204980
C        -3.82237884421995    1.23117245855290    1.39951228594639
O        -3.94317589149844    1.44809274681761    0.07486192983299
C        -4.78738024868589    2.47665584075086   -0.37937545706021
O        -2.43408993961432   -1.83350162666947    0.60754281377382
H        -2.57473672210238    0.13572368146035   -5.15800626449752
H        -0.88291789361340    1.79270100079817   -5.81271429777865
H         0.98425820866626    2.30355806022611   -4.27133646198946
H         1.13098889626371    1.19890119298093   -2.11358452781664
H        -0.90889379603142   -1.67565763474955   -1.03815036504894
H         1.61003445907610   -0.45085575523405   -1.02079816844905
H         2.31417689095845   -4.82554686289864    0.66965270747710
H         1.42280851398144   -4.75334648673416    2.96210364762605
H         0.26826855244026   -2.71942863689050    3.76378382280243
H         0.02213042144711   -0.78523989029730    2.28981082230597
H         3.63462743131825    1.77014052933649   -2.67346600203185
H         4.40188944264204    0.20854535108166   -2.29297281453219
H         5.08823311696101    1.72969179112483   -1.64809079285950
H         5.63604101157459   -0.14398934806092   -0.36578158324564
H         6.27054370647667   -1.17748204795298    1.74387201271143
H         4.75374492270571   -1.08724523342295    3.69450719991276
H         2.56840889368174    0.05410951826343    3.47792051031154
H        -1.03430229858072    1.58108437371645    1.34344588370943
H         0.18794399225111    3.96286722545318   -1.11531932806206
H        -2.24624405512497   -1.03376403188146    3.36979832577963
H        -3.39380873057298    0.27735762268308    5.13139171315655
H        -4.81268997960275    2.19207700381824    4.48602973623141
H        -5.11628435350393    2.77968423611886    2.13976667697984
H        -5.82547180568996    2.30702721361499   -0.07600490744022
H        -4.71139296808177    2.44812053069828   -1.46361359183493
H        -4.45213253260233    3.45540999098935   -0.02400910711740
