60
 energy: -102.484273973248 gnorm: 0.000343135422 xtb: 6.3.3 (4ae9cef)
C        -0.72516231335849   -0.88061295932986   -1.80726710587314
C        -1.16245912911969   -1.43955888808792   -2.99355597992495
C        -1.99759516942081   -2.54370947764760   -2.97625914567519
C        -2.38482153832446   -3.09429771571406   -1.76685699569930
C        -1.94762728519806   -2.53555733789376   -0.57952453342376
C        -1.12358296112652   -1.41829587511494   -0.58924880190325
C        -0.66815011547345   -0.79871263490936    0.71077544192210
C         0.84354308502168   -1.02672133885133    0.94599354942411
C         1.27144299810054   -1.35962082267880    2.35748445725182
C         2.55145494400005   -1.88218445573906    2.52066071226324
C         3.04772977260945   -2.15372735431499    3.78147754638667
C         2.26957927007473   -1.90643842563280    4.90057926584925
C         0.99730589578926   -1.38610684813141    4.74694042684686
C         0.49891199435592   -1.11075198251055    3.48352734339206
N         1.44972616607531    0.24560416098806    0.55569316805915
C         2.42620083076132    0.26373678788738   -0.40513437764781
C         2.88168808657630    1.58772185840977   -0.85393337003827
C         3.00080934356881    2.80929096966276   -0.23727443455528
C         3.62001588802215    3.66341154247565   -1.17230644385391
C         3.83936731777769    2.91210673295418   -2.29507158237339
C         4.44391526576750    3.26038065189748   -3.60613391478733
O         3.40461093058850    1.65932540529533   -2.10109526623286
O         2.91168412316124   -0.76829171858957   -0.82518473213817
C         0.50724430265366    1.27564581582721    0.88295462824131
C         0.63053457833993    1.73391065537696    2.34612924940168
O         1.89594193896640    1.97774928177735    2.68296754516148
O        -0.29560117673124    1.87706778995650    3.09040781019416
N        -0.78605362077019    0.65461735928909    0.68170813966697
C        -1.78536070800861    1.35876314900443    0.08009091759951
C        -3.03560247059663    0.58547244686342   -0.10208267848188
C        -3.78899601486907   -0.12689965780940    0.78970006169908
C        -4.88908719106166   -0.62821083405190    0.05880312045487
C        -4.72903597582454   -0.19025015398416   -1.22483676732696
C        -5.53073324157893   -0.42114676872551   -2.45369126852292
O        -3.61531520075368    0.55840478443390   -1.32004263375211
O        -1.64935914822892    2.52058951206048   -0.24235788590676
H        -0.08136635006076   -0.01367728641316   -1.83258161306826
H        -0.85298833386577   -1.00810187137665   -3.93341862457212
H        -2.34503146546485   -2.97465122631812   -3.90362777541946
H        -3.03488025138715   -3.95631030363769   -1.74628154139947
H        -2.25763570676606   -2.96150879955655    0.36379094294577
H        -1.25511623064337   -1.21938981553852    1.53171947603892
H         1.23219070619645   -1.79389874533554    0.26661222046763
H         3.15728185289354   -2.06688405839327    1.64607942853738
H         4.04240761499762   -2.55909024217301    3.89176704541260
H         2.65377185713537   -2.11745738528072    5.88753256838483
H         0.38483849740149   -1.18595606837276    5.61365810059176
H        -0.49033656461504   -0.68828237444173    3.39878727373878
H         2.72611711465236    3.05280545832017    0.76730176672184
H         3.86954649050643    4.69497858866481   -1.03169334741531
H         4.74564990743578    4.30315199962565   -3.60756208119147
H         3.72780147452442    3.09229144430500   -4.40928093273937
H         5.31320012775014    2.63299712204460   -3.79796312176365
H         0.59721114208212    2.16305012188630    0.24019335283466
H         1.95679682548256    2.25194515620143    3.61307337633785
H        -3.59440028613735   -0.25297489478594    1.83497529502641
H        -5.68890497839349   -1.23184296554961    0.43585087699123
H        -5.85793089744337    0.52699365088421   -2.87727833750905
H        -4.92606708691184   -0.93271846261223   -3.20177038146117
H        -6.39932193112202   -1.02817469660035   -2.21845343318367
